                                   MODFLOW 6
                U.S. GEOLOGICAL SURVEY MODULAR HYDROLOGIC MODEL
                          GROUNDWATER FLOW MODEL (GWF)
                            VERSION 6.0.5 03/31/2019
                               ***DEVELOP MODE***

   MODFLOW 6 compiled Apr 20 2019 07:46:54 with IFORT compiler (ver. 18.0.2)

This software is preliminary or provisional and is subject to 
revision. It is being provided to meet the need for timely best 
science. The software has not received final approval by the U.S. 
Geological Survey (USGS). No warranty, expressed or implied, is made 
by the USGS or the U.S. Government as to the functionality of the 
software and related material nor shall the fact of release 
constitute any such warranty. The software is provided on the 
condition that neither the USGS nor the U.S. Government shall be held 
liable for any damages resulting from the authorized or unauthorized 
use of the software.


MODFLOW was compiled using uniform precision.
Precision of REAL variables: 15


 OPENED gwf.chd
 FILE TYPE:CHD6                   UNIT 1005   STATUS:OLD                 
 FORMAT:FORMATTED              ACCESS:SEQUENTIAL          
 ACTION:READ                


 OPENED gwf.sto
 FILE TYPE:STO6                   UNIT 1006   STATUS:OLD                 
 FORMAT:FORMATTED              ACCESS:SEQUENTIAL          
 ACTION:READ                


 OPENED gwf.oc
 FILE TYPE:OC6                    UNIT 1007   STATUS:OLD                 
 FORMAT:FORMATTED              ACCESS:SEQUENTIAL          
 ACTION:READ                


 OPENED gwf.npf
 FILE TYPE:NPF6                   UNIT 1008   STATUS:OLD                 
 FORMAT:FORMATTED              ACCESS:SEQUENTIAL          
 ACTION:READ                


 OPENED gwf.ic
 FILE TYPE:IC6                    UNIT 1009   STATUS:OLD                 
 FORMAT:FORMATTED              ACCESS:SEQUENTIAL          
 ACTION:READ                


 OPENED gwf.dis
 FILE TYPE:DIS6                   UNIT 1010   STATUS:OLD                 
 FORMAT:FORMATTED              ACCESS:SEQUENTIAL          
 ACTION:READ                


 OPENED gwf_1.rch
 FILE TYPE:RCH6                   UNIT 1011   STATUS:OLD                 
 FORMAT:FORMATTED              ACCESS:SEQUENTIAL          
 ACTION:READ                


 DIS -- STRUCTURED GRID DISCRETIZATION PACKAGE, VERSION 2 : 3/27/2014 - INPUT READ FROM UNIT 1010


 PROCESSING DISCRETIZATION OPTIONS
 END OF DISCRETIZATION OPTIONS
 MODEL LENGTH UNIT IS UNDEFINED
 PROCESSING DISCRETIZATION DIMENSIONS
    NLAY =       3
    NROW =      15
    NCOL =      10
 END OF DISCRETIZATION DIMENSIONS
 PROCESSING GRIDDATA

                     DELR =   500.0000    

                     DELC =   500.0000    

 TOP ELEVATION OF LAYER 1 =   50.00000    

   MODEL LAYER BOTTOM EL. =   5.000000     FOR LAYER 1

   MODEL LAYER BOTTOM EL. =  -10.00000     FOR LAYER 2
 END PROCESSING GRIDDATA

 NPF -- NODE PROPERTY FLOW PACKAGE, VERSION 1, 3/30/2015 INPUT READ FROM UNIT 1008


 PROCESSING NPF OPTIONS
    CELL-BY-CELL FLOW INFORMATION WILL BE SAVED TO BINARY FILE WHENEVER ICBCFL IS NOT ZERO.
 END OF NPF OPTIONS

 RCH   -- RCH PACKAGE, VERSION 8, 2/22/2014 INPUT READ FROM UNIT 1011

 PROCESSING RCH OPTIONS
    RECHARGE WILL BE APPLIED TO SPECIFIED CELL.
    AUXILIARY RCH VARIABLE: MULTIPLIER      
    AUXILIARY MULTIPLIER NAME: MULTIPLIER      
    RCH BOUNDARIES HAVE NAMES IN LAST COLUMN.
    LISTS OF RCH CELLS WILL BE PRINTED.
    RCH FLOWS WILL BE PRINTED TO LISTING FILE.
    FLOWS WILL BE SAVED TO BUDGET FILE SPECIFIED IN OUTPUT CONTROL
    TIME-SERIES DATA WILL BE READ FROM FILE: rch.ts
 END OF RCH OPTIONS

 PROCESSING RCH DIMENSIONS
    MAXBOUND =     150
 END OF RCH DIMENSIONS

 CHD   -- CHD PACKAGE, VERSION 8, 2/22/2014 INPUT READ FROM UNIT 1005

 PROCESSING CHD OPTIONS
    CHD BOUNDARIES HAVE NAMES IN LAST COLUMN.

 OPENED gwf.chd.obs
 FILE TYPE:OBS   UNIT 1014   STATUS:OLD                 
 FORMAT:FORMATTED              ACCESS:SEQUENTIAL          
 ACTION:READ                

 END OF CHD OPTIONS

 PROCESSING CHD DIMENSIONS
    MAXBOUND =      56
 END OF CHD DIMENSIONS

 IC -- INITIAL CONDITIONS PACKAGE, VERSION 8, 3/28/2015 INPUT READ FROM UNIT 1009
 PROCESSING GRIDDATA

     INITIAL HEAD =   50.00000    
 END PROCESSING GRIDDATA
 PROCESSING GRIDDATA

                ICELLTYPE = 1 FOR LAYER 1

                ICELLTYPE = 0 FOR LAYER 2

                ICELLTYPE = 0 FOR LAYER 3

                        K =   5.000000     FOR LAYER 1

                        K =  0.1000000     FOR LAYER 2

                        K =   4.000000     FOR LAYER 3

                      K33 =  0.5000000     FOR LAYER 1

                      K33 =  0.5000000E-02 FOR LAYER 2

                      K33 =  0.1000000     FOR LAYER 3
 K22 not provided.  Assuming K22 = K.
 END PROCESSING GRIDDATA

 STO -- STORAGE PACKAGE, VERSION 1, 5/19/2014 INPUT READ FROM UNIT 1006


 PROCESSING STORAGE OPTIONS
    CELL-BY-CELL FLOW INFORMATION WILL BE SAVED TO BINARY FILE WHENEVER ICBCFL IS NOT ZERO.
 END OF STORAGE OPTIONS
 PROCESSING GRIDDATA

                 ICONVERT = 1

         SPECIFIC STORAGE =  0.1000000E-05

           SPECIFIC YIELD =  0.2000000    
 END PROCESSING GRIDDATA
    BINARY GRID INFORMATION WILL BE WRITTEN TO:
      UNIT NUMBER: 1015
      FILE NAME: c:\Users\rui2h\Documents\GitHub\lumpyrem\examples\flopy\mf6model\gwf.dis.grb

 OPENED c:\Users\rui2h\Documents\GitHub\lumpyrem\examples\flopy\mf6model\gwf.dis.grb
 FILE TYPE:DATA(BINARY)   UNIT 1015   STATUS:REPLACE             
 FORMAT:UNFORMATTED            ACCESS:STREAM              
 ACTION:READWRITE           

      THE LAST TIME STEP WILL BE PRINTED
      THE LAST TIME STEP WILL BE PRINTED
 PROCESSING OC OPTIONS
    BUDGET INFORMATION WILL BE WRITTEN TO:
      UNIT NUMBER: 1016
      FILE NAME: child_pkgs.cbc

 OPENED child_pkgs.cbc
 FILE TYPE:DATA(BINARY)   UNIT 1016   STATUS:REPLACE             
 FORMAT:UNFORMATTED            ACCESS:STREAM              
 ACTION:READWRITE           

    HEAD INFORMATION WILL BE WRITTEN TO:
      UNIT NUMBER: 1017
      FILE NAME: child_pkgs.hds

 OPENED child_pkgs.hds
 FILE TYPE:DATA(BINARY)   UNIT 1017   STATUS:REPLACE             
 FORMAT:UNFORMATTED            ACCESS:STREAM              
 ACTION:READWRITE           

 END OF OC OPTIONS

The observation utility is active for "CHD_0"

Processing observation options:

Text output number of digits of precision set to:  9
The PRINT_INPUT option has been specified.


Observations read from file "gwf.chd.obs":
Name                                      Type                             Time         Location data
----------------------------------------  -------------------------------  -----------  --------------------------
CHD                                       Continuous CHD                   All times    "CHD"

 BEGIN READING OUTPUT CONTROL FOR STRESS PERIOD 1
      ALL TIME STEPS WILL BE SAVED
      ALL TIME STEPS WILL BE SAVED
      THE FIRST TIME STEP WILL BE PRINTED
      THE LAST TIME STEP WILL BE PRINTED
      THE LAST TIME STEP WILL BE PRINTED

 END READING OUTPUT CONTROL FOR STRESS PERIOD 1


 UPDATING STORAGE VALUES
 END UPDATING STORAGE VALUES


 STRESS PERIOD 1 IS STEADY-STATE


 RCH NO.  LAYER    ROW    COL        RECHARGE   BOUNDARY NAME         MULTIPLIER      
 -------------------------------------------------------------------------------------
      1      1      1      1       0.000      RCH                                            1.000    
      2      1      1      2       0.000      RCH                                            1.000    
      3      1      1      3       0.000      RCH                                            1.000    
      4      1      1      4       0.000      RCH                                            1.000    
      5      1      1      5       0.000      RCH                                            1.000    
      6      1      1      6       0.000      RCH                                            1.000    
      7      1      1      7       0.000      RCH                                            1.000    
      8      1      1      8       0.000      RCH                                            1.000    
      9      1      1      9       0.000      RCH                                            1.000    
     10      1      1     10       0.000      RCH                                            1.000    
     11      1      2      1       0.000      RCH                                            1.000    
     12      1      2      2       0.000      RCH                                            1.000    
     13      1      2      3       0.000      RCH                                            1.000    
     14      1      2      4       0.000      RCH                                            1.000    
     15      1      2      5       0.000      RCH                                            1.000    
     16      1      2      6       0.000      RCH                                            1.000    
     17      1      2      7       0.000      RCH                                            1.000    
     18      1      2      8       0.000      RCH                                            1.000    
     19      1      2      9       0.000      RCH                                            1.000    
     20      1      2     10       0.000      RCH                                            1.000    
     21      1      3      1       0.000      RCH                                            1.000    
     22      1      3      2       0.000      RCH                                            1.000    
     23      1      3      3       0.000      RCH                                            1.000    
     24      1      3      4       0.000      RCH                                            1.000    
     25      1      3      5       0.000      RCH                                            1.000    
     26      1      3      6       0.000      RCH                                            1.000    
     27      1      3      7       0.000      RCH                                            1.000    
     28      1      3      8       0.000      RCH                                            1.000    
     29      1      3      9       0.000      RCH                                            1.000    
     30      1      3     10       0.000      RCH                                            1.000    
     31      1      4      1       0.000      RCH                                            1.000    
     32      1      4      2       0.000      RCH                                            1.000    
     33      1      4      3       0.000      RCH                                            1.000    
     34      1      4      4       0.000      RCH                                            1.000    
     35      1      4      5       0.000      RCH                                            1.000    
     36      1      4      6       0.000      RCH                                            1.000    
     37      1      4      7       0.000      RCH                                            1.000    
     38      1      4      8       0.000      RCH                                            1.000    
     39      1      4      9       0.000      RCH                                            1.000    
     40      1      4     10       0.000      RCH                                            1.000    
     41      1      5      1       0.000      RCH                                            1.000    
     42      1      5      2       0.000      RCH                                            1.000    
     43      1      5      3       0.000      RCH                                            1.000    
     44      1      5      4       0.000      RCH                                            1.000    
     45      1      5      5       0.000      RCH                                            1.000    
     46      1      5      6       0.000      RCH                                            1.000    
     47      1      5      7       0.000      RCH                                            1.000    
     48      1      5      8       0.000      RCH                                            1.000    
     49      1      5      9       0.000      RCH                                            1.000    
     50      1      5     10       0.000      RCH                                            1.000    
     51      1      6      1       0.000      RCH                                            1.000    
     52      1      6      2       0.000      RCH                                            1.000    
     53      1      6      3       0.000      RCH                                            1.000    
     54      1      6      4       0.000      RCH                                            1.000    
     55      1      6      5       0.000      RCH                                            1.000    
     56      1      6      6       0.000      RCH                                            1.000    
     57      1      6      7       0.000      RCH                                            1.000    
     58      1      6      8       0.000      RCH                                            1.000    
     59      1      6      9       0.000      RCH                                            1.000    
     60      1      6     10       0.000      RCH                                            1.000    
     61      1      7      1       0.000      RCH                                            1.000    
     62      1      7      2       0.000      RCH                                            1.000    
     63      1      7      3       0.000      RCH                                            1.000    
     64      1      7      4       0.000      RCH                                            1.000    
     65      1      7      5       0.000      RCH                                            1.000    
     66      1      7      6       0.000      RCH                                            1.000    
     67      1      7      7       0.000      RCH                                            1.000    
     68      1      7      8       0.000      RCH                                            1.000    
     69      1      7      9       0.000      RCH                                            1.000    
     70      1      7     10       0.000      RCH                                            1.000    
     71      1      8      1       0.000      RCH                                            1.000    
     72      1      8      2       0.000      RCH                                            1.000    
     73      1      8      3       0.000      RCH                                            1.000    
     74      1      8      4       0.000      RCH                                            1.000    
     75      1      8      5       0.000      RCH                                            1.000    
     76      1      8      6       0.000      RCH                                            1.000    
     77      1      8      7       0.000      RCH                                            1.000    
     78      1      8      8       0.000      RCH                                            1.000    
     79      1      8      9       0.000      RCH                                            1.000    
     80      1      8     10       0.000      RCH                                            1.000    
     81      1      9      1       0.000      RCH                                            1.000    
     82      1      9      2       0.000      RCH                                            1.000    
     83      1      9      3       0.000      RCH                                            1.000    
     84      1      9      4       0.000      RCH                                            1.000    
     85      1      9      5       0.000      RCH                                            1.000    
     86      1      9      6       0.000      RCH                                            1.000    
     87      1      9      7       0.000      RCH                                            1.000    
     88      1      9      8       0.000      RCH                                            1.000    
     89      1      9      9       0.000      RCH                                            1.000    
     90      1      9     10       0.000      RCH                                            1.000    
     91      1     10      1       0.000      RCH                                            1.000    
     92      1     10      2       0.000      RCH                                            1.000    
     93      1     10      3       0.000      RCH                                            1.000    
     94      1     10      4       0.000      RCH                                            1.000    
     95      1     10      5       0.000      RCH                                            1.000    
     96      1     10      6       0.000      RCH                                            1.000    
     97      1     10      7       0.000      RCH                                            1.000    
     98      1     10      8       0.000      RCH                                            1.000    
     99      1     10      9       0.000      RCH                                            1.000    
    100      1     10     10       0.000      RCH                                            1.000    
    101      1     11      1       0.000      RCH                                            1.000    
    102      1     11      2       0.000      RCH                                            1.000    
    103      1     11      3       0.000      RCH                                            1.000    
    104      1     11      4       0.000      RCH                                            1.000    
    105      1     11      5       0.000      RCH                                            1.000    
    106      1     11      6       0.000      RCH                                            1.000    
    107      1     11      7       0.000      RCH                                            1.000    
    108      1     11      8       0.000      RCH                                            1.000    
    109      1     11      9       0.000      RCH                                            1.000    
    110      1     11     10       0.000      RCH                                            1.000    
    111      1     12      1       0.000      RCH                                            1.000    
    112      1     12      2       0.000      RCH                                            1.000    
    113      1     12      3       0.000      RCH                                            1.000    
    114      1     12      4       0.000      RCH                                            1.000    
    115      1     12      5       0.000      RCH                                            1.000    
    116      1     12      6       0.000      RCH                                            1.000    
    117      1     12      7       0.000      RCH                                            1.000    
    118      1     12      8       0.000      RCH                                            1.000    
    119      1     12      9       0.000      RCH                                            1.000    
    120      1     12     10       0.000      RCH                                            1.000    
    121      1     13      1       0.000      RCH                                            1.000    
    122      1     13      2       0.000      RCH                                            1.000    
    123      1     13      3       0.000      RCH                                            1.000    
    124      1     13      4       0.000      RCH                                            1.000    
    125      1     13      5       0.000      RCH                                            1.000    
    126      1     13      6       0.000      RCH                                            1.000    
    127      1     13      7       0.000      RCH                                            1.000    
    128      1     13      8       0.000      RCH                                            1.000    
    129      1     13      9       0.000      RCH                                            1.000    
    130      1     13     10       0.000      RCH                                            1.000    
    131      1     14      1       0.000      RCH                                            1.000    
    132      1     14      2       0.000      RCH                                            1.000    
    133      1     14      3       0.000      RCH                                            1.000    
    134      1     14      4       0.000      RCH                                            1.000    
    135      1     14      5       0.000      RCH                                            1.000    
    136      1     14      6       0.000      RCH                                            1.000    
    137      1     14      7       0.000      RCH                                            1.000    
    138      1     14      8       0.000      RCH                                            1.000    
    139      1     14      9       0.000      RCH                                            1.000    
    140      1     14     10       0.000      RCH                                            1.000    
    141      1     15      1       0.000      RCH                                            1.000    
    142      1     15      2       0.000      RCH                                            1.000    
    143      1     15      3       0.000      RCH                                            1.000    
    144      1     15      4       0.000      RCH                                            1.000    
    145      1     15      5       0.000      RCH                                            1.000    
    146      1     15      6       0.000      RCH                                            1.000    
    147      1     15      7       0.000      RCH                                            1.000    
    148      1     15      8       0.000      RCH                                            1.000    
    149      1     15      9       0.000      RCH                                            1.000    
    150      1     15     10       0.000      RCH                                            1.000    

Time-series controlled values in stress period 1, time step 1:
"RCH_1" package: Boundary 1, RECHARGE value from time series "RCH_LU1" =   0.0000     (RCH)
"RCH_1" package: Boundary 2, RECHARGE value from time series "RCH_LU1" =   0.0000     (RCH)
"RCH_1" package: Boundary 3, RECHARGE value from time series "RCH_LU1" =   0.0000     (RCH)
"RCH_1" package: Boundary 4, RECHARGE value from time series "RCH_LU1" =   0.0000     (RCH)
"RCH_1" package: Boundary 5, RECHARGE value from time series "RCH_LU1" =   0.0000     (RCH)
"RCH_1" package: Boundary 6, RECHARGE value from time series "RCH_LU1" =   0.0000     (RCH)
"RCH_1" package: Boundary 7, RECHARGE value from time series "RCH_LU1" =   0.0000     (RCH)
"RCH_1" package: Boundary 8, RECHARGE value from time series "RCH_LU1" =   0.0000     (RCH)
"RCH_1" package: Boundary 9, RECHARGE value from time series "RCH_LU1" =   0.0000     (RCH)
"RCH_1" package: Boundary 10, RECHARGE value from time series "RCH_LU1" =   0.0000     (RCH)
"RCH_1" package: Boundary 11, RECHARGE value from time series "RCH_LU1" =   0.0000     (RCH)
"RCH_1" package: Boundary 12, RECHARGE value from time series "RCH_LU1" =   0.0000     (RCH)
"RCH_1" package: Boundary 13, RECHARGE value from time series "RCH_LU1" =   0.0000     (RCH)
"RCH_1" package: Boundary 14, RECHARGE value from time series "RCH_LU1" =   0.0000     (RCH)
"RCH_1" package: Boundary 15, RECHARGE value from time series "RCH_LU1" =   0.0000     (RCH)
"RCH_1" package: Boundary 16, RECHARGE value from time series "RCH_LU1" =   0.0000     (RCH)
"RCH_1" package: Boundary 17, RECHARGE value from time series "RCH_LU1" =   0.0000     (RCH)
"RCH_1" package: Boundary 18, RECHARGE value from time series "RCH_LU1" =   0.0000     (RCH)
"RCH_1" package: Boundary 19, RECHARGE value from time series "RCH_LU1" =   0.0000     (RCH)
"RCH_1" package: Boundary 20, RECHARGE value from time series "RCH_LU1" =   0.0000     (RCH)
"RCH_1" package: Boundary 21, RECHARGE value from time series "RCH_LU1" =   0.0000     (RCH)
"RCH_1" package: Boundary 22, RECHARGE value from time series "RCH_LU1" =   0.0000     (RCH)
"RCH_1" package: Boundary 23, RECHARGE value from time series "RCH_LU1" =   0.0000     (RCH)
"RCH_1" package: Boundary 24, RECHARGE value from time series "RCH_LU1" =   0.0000     (RCH)
"RCH_1" package: Boundary 25, RECHARGE value from time series "RCH_LU1" =   0.0000     (RCH)
"RCH_1" package: Boundary 26, RECHARGE value from time series "RCH_LU1" =   0.0000     (RCH)
"RCH_1" package: Boundary 27, RECHARGE value from time series "RCH_LU1" =   0.0000     (RCH)
"RCH_1" package: Boundary 28, RECHARGE value from time series "RCH_LU1" =   0.0000     (RCH)
"RCH_1" package: Boundary 29, RECHARGE value from time series "RCH_LU1" =   0.0000     (RCH)
"RCH_1" package: Boundary 30, RECHARGE value from time series "RCH_LU1" =   0.0000     (RCH)
"RCH_1" package: Boundary 31, RECHARGE value from time series "RCH_LU1" =   0.0000     (RCH)
"RCH_1" package: Boundary 32, RECHARGE value from time series "RCH_LU1" =   0.0000     (RCH)
"RCH_1" package: Boundary 33, RECHARGE value from time series "RCH_LU1" =   0.0000     (RCH)
"RCH_1" package: Boundary 34, RECHARGE value from time series "RCH_LU1" =   0.0000     (RCH)
"RCH_1" package: Boundary 35, RECHARGE value from time series "RCH_LU1" =   0.0000     (RCH)
"RCH_1" package: Boundary 36, RECHARGE value from time series "RCH_LU1" =   0.0000     (RCH)
"RCH_1" package: Boundary 37, RECHARGE value from time series "RCH_LU1" =   0.0000     (RCH)
"RCH_1" package: Boundary 38, RECHARGE value from time series "RCH_LU1" =   0.0000     (RCH)
"RCH_1" package: Boundary 39, RECHARGE value from time series "RCH_LU1" =   0.0000     (RCH)
"RCH_1" package: Boundary 40, RECHARGE value from time series "RCH_LU1" =   0.0000     (RCH)
"RCH_1" package: Boundary 41, RECHARGE value from time series "RCH_LU1" =   0.0000     (RCH)
"RCH_1" package: Boundary 42, RECHARGE value from time series "RCH_LU1" =   0.0000     (RCH)
"RCH_1" package: Boundary 43, RECHARGE value from time series "RCH_LU1" =   0.0000     (RCH)
"RCH_1" package: Boundary 44, RECHARGE value from time series "RCH_LU1" =   0.0000     (RCH)
"RCH_1" package: Boundary 45, RECHARGE value from time series "RCH_LU1" =   0.0000     (RCH)
"RCH_1" package: Boundary 46, RECHARGE value from time series "RCH_LU1" =   0.0000     (RCH)
"RCH_1" package: Boundary 47, RECHARGE value from time series "RCH_LU1" =   0.0000     (RCH)
"RCH_1" package: Boundary 48, RECHARGE value from time series "RCH_LU1" =   0.0000     (RCH)
"RCH_1" package: Boundary 49, RECHARGE value from time series "RCH_LU1" =   0.0000     (RCH)
"RCH_1" package: Boundary 50, RECHARGE value from time series "RCH_LU1" =   0.0000     (RCH)
"RCH_1" package: Boundary 51, RECHARGE value from time series "RCH_LU1" =   0.0000     (RCH)
"RCH_1" package: Boundary 52, RECHARGE value from time series "RCH_LU1" =   0.0000     (RCH)
"RCH_1" package: Boundary 53, RECHARGE value from time series "RCH_LU1" =   0.0000     (RCH)
"RCH_1" package: Boundary 54, RECHARGE value from time series "RCH_LU1" =   0.0000     (RCH)
"RCH_1" package: Boundary 55, RECHARGE value from time series "RCH_LU1" =   0.0000     (RCH)
"RCH_1" package: Boundary 56, RECHARGE value from time series "RCH_LU1" =   0.0000     (RCH)
"RCH_1" package: Boundary 57, RECHARGE value from time series "RCH_LU1" =   0.0000     (RCH)
"RCH_1" package: Boundary 58, RECHARGE value from time series "RCH_LU1" =   0.0000     (RCH)
"RCH_1" package: Boundary 59, RECHARGE value from time series "RCH_LU1" =   0.0000     (RCH)
"RCH_1" package: Boundary 60, RECHARGE value from time series "RCH_LU1" =   0.0000     (RCH)
"RCH_1" package: Boundary 61, RECHARGE value from time series "RCH_LU1" =   0.0000     (RCH)
"RCH_1" package: Boundary 62, RECHARGE value from time series "RCH_LU1" =   0.0000     (RCH)
"RCH_1" package: Boundary 63, RECHARGE value from time series "RCH_LU1" =   0.0000     (RCH)
"RCH_1" package: Boundary 64, RECHARGE value from time series "RCH_LU1" =   0.0000     (RCH)
"RCH_1" package: Boundary 65, RECHARGE value from time series "RCH_LU1" =   0.0000     (RCH)
"RCH_1" package: Boundary 66, RECHARGE value from time series "RCH_LU1" =   0.0000     (RCH)
"RCH_1" package: Boundary 67, RECHARGE value from time series "RCH_LU1" =   0.0000     (RCH)
"RCH_1" package: Boundary 68, RECHARGE value from time series "RCH_LU1" =   0.0000     (RCH)
"RCH_1" package: Boundary 69, RECHARGE value from time series "RCH_LU1" =   0.0000     (RCH)
"RCH_1" package: Boundary 70, RECHARGE value from time series "RCH_LU1" =   0.0000     (RCH)
"RCH_1" package: Boundary 71, RECHARGE value from time series "RCH_LU1" =   0.0000     (RCH)
"RCH_1" package: Boundary 72, RECHARGE value from time series "RCH_LU1" =   0.0000     (RCH)
"RCH_1" package: Boundary 73, RECHARGE value from time series "RCH_LU1" =   0.0000     (RCH)
"RCH_1" package: Boundary 74, RECHARGE value from time series "RCH_LU1" =   0.0000     (RCH)
"RCH_1" package: Boundary 75, RECHARGE value from time series "RCH_LU1" =   0.0000     (RCH)
"RCH_1" package: Boundary 76, RECHARGE value from time series "RCH_LU1" =   0.0000     (RCH)
"RCH_1" package: Boundary 77, RECHARGE value from time series "RCH_LU1" =   0.0000     (RCH)
"RCH_1" package: Boundary 78, RECHARGE value from time series "RCH_LU1" =   0.0000     (RCH)
"RCH_1" package: Boundary 79, RECHARGE value from time series "RCH_LU1" =   0.0000     (RCH)
"RCH_1" package: Boundary 80, RECHARGE value from time series "RCH_LU1" =   0.0000     (RCH)
"RCH_1" package: Boundary 81, RECHARGE value from time series "RCH_LU1" =   0.0000     (RCH)
"RCH_1" package: Boundary 82, RECHARGE value from time series "RCH_LU1" =   0.0000     (RCH)
"RCH_1" package: Boundary 83, RECHARGE value from time series "RCH_LU1" =   0.0000     (RCH)
"RCH_1" package: Boundary 84, RECHARGE value from time series "RCH_LU1" =   0.0000     (RCH)
"RCH_1" package: Boundary 85, RECHARGE value from time series "RCH_LU1" =   0.0000     (RCH)
"RCH_1" package: Boundary 86, RECHARGE value from time series "RCH_LU1" =   0.0000     (RCH)
"RCH_1" package: Boundary 87, RECHARGE value from time series "RCH_LU1" =   0.0000     (RCH)
"RCH_1" package: Boundary 88, RECHARGE value from time series "RCH_LU1" =   0.0000     (RCH)
"RCH_1" package: Boundary 89, RECHARGE value from time series "RCH_LU1" =   0.0000     (RCH)
"RCH_1" package: Boundary 90, RECHARGE value from time series "RCH_LU1" =   0.0000     (RCH)
"RCH_1" package: Boundary 91, RECHARGE value from time series "RCH_LU1" =   0.0000     (RCH)
"RCH_1" package: Boundary 92, RECHARGE value from time series "RCH_LU1" =   0.0000     (RCH)
"RCH_1" package: Boundary 93, RECHARGE value from time series "RCH_LU1" =   0.0000     (RCH)
"RCH_1" package: Boundary 94, RECHARGE value from time series "RCH_LU1" =   0.0000     (RCH)
"RCH_1" package: Boundary 95, RECHARGE value from time series "RCH_LU1" =   0.0000     (RCH)
"RCH_1" package: Boundary 96, RECHARGE value from time series "RCH_LU1" =   0.0000     (RCH)
"RCH_1" package: Boundary 97, RECHARGE value from time series "RCH_LU1" =   0.0000     (RCH)
"RCH_1" package: Boundary 98, RECHARGE value from time series "RCH_LU1" =   0.0000     (RCH)
"RCH_1" package: Boundary 99, RECHARGE value from time series "RCH_LU1" =   0.0000     (RCH)
"RCH_1" package: Boundary 100, RECHARGE value from time series "RCH_LU1" =   0.0000     (RCH)
"RCH_1" package: Boundary 101, RECHARGE value from time series "RCH_LU1" =   0.0000     (RCH)
"RCH_1" package: Boundary 102, RECHARGE value from time series "RCH_LU1" =   0.0000     (RCH)
"RCH_1" package: Boundary 103, RECHARGE value from time series "RCH_LU1" =   0.0000     (RCH)
"RCH_1" package: Boundary 104, RECHARGE value from time series "RCH_LU1" =   0.0000     (RCH)
"RCH_1" package: Boundary 105, RECHARGE value from time series "RCH_LU1" =   0.0000     (RCH)
"RCH_1" package: Boundary 106, RECHARGE value from time series "RCH_LU1" =   0.0000     (RCH)
"RCH_1" package: Boundary 107, RECHARGE value from time series "RCH_LU1" =   0.0000     (RCH)
"RCH_1" package: Boundary 108, RECHARGE value from time series "RCH_LU1" =   0.0000     (RCH)
"RCH_1" package: Boundary 109, RECHARGE value from time series "RCH_LU1" =   0.0000     (RCH)
"RCH_1" package: Boundary 110, RECHARGE value from time series "RCH_LU1" =   0.0000     (RCH)
"RCH_1" package: Boundary 111, RECHARGE value from time series "RCH_LU1" =   0.0000     (RCH)
"RCH_1" package: Boundary 112, RECHARGE value from time series "RCH_LU1" =   0.0000     (RCH)
"RCH_1" package: Boundary 113, RECHARGE value from time series "RCH_LU1" =   0.0000     (RCH)
"RCH_1" package: Boundary 114, RECHARGE value from time series "RCH_LU1" =   0.0000     (RCH)
"RCH_1" package: Boundary 115, RECHARGE value from time series "RCH_LU1" =   0.0000     (RCH)
"RCH_1" package: Boundary 116, RECHARGE value from time series "RCH_LU1" =   0.0000     (RCH)
"RCH_1" package: Boundary 117, RECHARGE value from time series "RCH_LU1" =   0.0000     (RCH)
"RCH_1" package: Boundary 118, RECHARGE value from time series "RCH_LU1" =   0.0000     (RCH)
"RCH_1" package: Boundary 119, RECHARGE value from time series "RCH_LU1" =   0.0000     (RCH)
"RCH_1" package: Boundary 120, RECHARGE value from time series "RCH_LU1" =   0.0000     (RCH)
"RCH_1" package: Boundary 121, RECHARGE value from time series "RCH_LU1" =   0.0000     (RCH)
"RCH_1" package: Boundary 122, RECHARGE value from time series "RCH_LU1" =   0.0000     (RCH)
"RCH_1" package: Boundary 123, RECHARGE value from time series "RCH_LU1" =   0.0000     (RCH)
"RCH_1" package: Boundary 124, RECHARGE value from time series "RCH_LU1" =   0.0000     (RCH)
"RCH_1" package: Boundary 125, RECHARGE value from time series "RCH_LU1" =   0.0000     (RCH)
"RCH_1" package: Boundary 126, RECHARGE value from time series "RCH_LU1" =   0.0000     (RCH)
"RCH_1" package: Boundary 127, RECHARGE value from time series "RCH_LU1" =   0.0000     (RCH)
"RCH_1" package: Boundary 128, RECHARGE value from time series "RCH_LU1" =   0.0000     (RCH)
"RCH_1" package: Boundary 129, RECHARGE value from time series "RCH_LU1" =   0.0000     (RCH)
"RCH_1" package: Boundary 130, RECHARGE value from time series "RCH_LU1" =   0.0000     (RCH)
"RCH_1" package: Boundary 131, RECHARGE value from time series "RCH_LU1" =   0.0000     (RCH)
"RCH_1" package: Boundary 132, RECHARGE value from time series "RCH_LU1" =   0.0000     (RCH)
"RCH_1" package: Boundary 133, RECHARGE value from time series "RCH_LU1" =   0.0000     (RCH)
"RCH_1" package: Boundary 134, RECHARGE value from time series "RCH_LU1" =   0.0000     (RCH)
"RCH_1" package: Boundary 135, RECHARGE value from time series "RCH_LU1" =   0.0000     (RCH)
"RCH_1" package: Boundary 136, RECHARGE value from time series "RCH_LU1" =   0.0000     (RCH)
"RCH_1" package: Boundary 137, RECHARGE value from time series "RCH_LU1" =   0.0000     (RCH)
"RCH_1" package: Boundary 138, RECHARGE value from time series "RCH_LU1" =   0.0000     (RCH)
"RCH_1" package: Boundary 139, RECHARGE value from time series "RCH_LU1" =   0.0000     (RCH)
"RCH_1" package: Boundary 140, RECHARGE value from time series "RCH_LU1" =   0.0000     (RCH)
"RCH_1" package: Boundary 141, RECHARGE value from time series "RCH_LU1" =   0.0000     (RCH)
"RCH_1" package: Boundary 142, RECHARGE value from time series "RCH_LU1" =   0.0000     (RCH)
"RCH_1" package: Boundary 143, RECHARGE value from time series "RCH_LU1" =   0.0000     (RCH)
"RCH_1" package: Boundary 144, RECHARGE value from time series "RCH_LU1" =   0.0000     (RCH)
"RCH_1" package: Boundary 145, RECHARGE value from time series "RCH_LU1" =   0.0000     (RCH)
"RCH_1" package: Boundary 146, RECHARGE value from time series "RCH_LU1" =   0.0000     (RCH)
"RCH_1" package: Boundary 147, RECHARGE value from time series "RCH_LU1" =   0.0000     (RCH)
"RCH_1" package: Boundary 148, RECHARGE value from time series "RCH_LU1" =   0.0000     (RCH)
"RCH_1" package: Boundary 149, RECHARGE value from time series "RCH_LU1" =   0.0000     (RCH)
"RCH_1" package: Boundary 150, RECHARGE value from time series "RCH_LU1" =   0.0000     (RCH)

 UBDSV1 SAVING           STO-SS ON UNIT   1016 AT TIME STEP      1, STRESS PERIOD      1
 UBDSV1 SAVING           STO-SY ON UNIT   1016 AT TIME STEP      1, STRESS PERIOD      1
 UBDSV1 SAVING     FLOW-JA-FACE ON UNIT   1016 AT TIME STEP      1, STRESS PERIOD      1
 UBDSV06 SAVING              RCH IN MODEL GWF              PACKAGE GWF             CONNECTED TO MODEL GWF              PACKAGE RCH_1            ON UNIT   1016 AT TIME STEP      1, STRESS PERIOD      1

              RCH (RCH_1)   PERIOD 1   STEP 1
 BOUNDARY        2  CELL              (1,1,2)   RATE     0.00000      RCH
 BOUNDARY        3  CELL              (1,1,3)   RATE     0.00000      RCH
 BOUNDARY        4  CELL              (1,1,4)   RATE     0.00000      RCH
 BOUNDARY        5  CELL              (1,1,5)   RATE     0.00000      RCH
 BOUNDARY        6  CELL              (1,1,6)   RATE     0.00000      RCH
 BOUNDARY        7  CELL              (1,1,7)   RATE     0.00000      RCH
 BOUNDARY        8  CELL              (1,1,8)   RATE     0.00000      RCH
 BOUNDARY        9  CELL              (1,1,9)   RATE     0.00000      RCH
 BOUNDARY       12  CELL              (1,2,2)   RATE     0.00000      RCH
 BOUNDARY       13  CELL              (1,2,3)   RATE     0.00000      RCH
 BOUNDARY       14  CELL              (1,2,4)   RATE     0.00000      RCH
 BOUNDARY       15  CELL              (1,2,5)   RATE     0.00000      RCH
 BOUNDARY       16  CELL              (1,2,6)   RATE     0.00000      RCH
 BOUNDARY       17  CELL              (1,2,7)   RATE     0.00000      RCH
 BOUNDARY       18  CELL              (1,2,8)   RATE     0.00000      RCH
 BOUNDARY       19  CELL              (1,2,9)   RATE     0.00000      RCH
 BOUNDARY       22  CELL              (1,3,2)   RATE     0.00000      RCH
 BOUNDARY       23  CELL              (1,3,3)   RATE     0.00000      RCH
 BOUNDARY       24  CELL              (1,3,4)   RATE     0.00000      RCH
 BOUNDARY       25  CELL              (1,3,5)   RATE     0.00000      RCH
 BOUNDARY       26  CELL              (1,3,6)   RATE     0.00000      RCH
 BOUNDARY       27  CELL              (1,3,7)   RATE     0.00000      RCH
 BOUNDARY       28  CELL              (1,3,8)   RATE     0.00000      RCH
 BOUNDARY       29  CELL              (1,3,9)   RATE     0.00000      RCH
 BOUNDARY       32  CELL              (1,4,2)   RATE     0.00000      RCH
 BOUNDARY       33  CELL              (1,4,3)   RATE     0.00000      RCH
 BOUNDARY       34  CELL              (1,4,4)   RATE     0.00000      RCH
 BOUNDARY       35  CELL              (1,4,5)   RATE     0.00000      RCH
 BOUNDARY       36  CELL              (1,4,6)   RATE     0.00000      RCH
 BOUNDARY       37  CELL              (1,4,7)   RATE     0.00000      RCH
 BOUNDARY       38  CELL              (1,4,8)   RATE     0.00000      RCH
 BOUNDARY       39  CELL              (1,4,9)   RATE     0.00000      RCH
 BOUNDARY       42  CELL              (1,5,2)   RATE     0.00000      RCH
 BOUNDARY       43  CELL              (1,5,3)   RATE     0.00000      RCH
 BOUNDARY       44  CELL              (1,5,4)   RATE     0.00000      RCH
 BOUNDARY       45  CELL              (1,5,5)   RATE     0.00000      RCH
 BOUNDARY       46  CELL              (1,5,6)   RATE     0.00000      RCH
 BOUNDARY       47  CELL              (1,5,7)   RATE     0.00000      RCH
 BOUNDARY       48  CELL              (1,5,8)   RATE     0.00000      RCH
 BOUNDARY       49  CELL              (1,5,9)   RATE     0.00000      RCH
 BOUNDARY       52  CELL              (1,6,2)   RATE     0.00000      RCH
 BOUNDARY       53  CELL              (1,6,3)   RATE     0.00000      RCH
 BOUNDARY       54  CELL              (1,6,4)   RATE     0.00000      RCH
 BOUNDARY       55  CELL              (1,6,5)   RATE     0.00000      RCH
 BOUNDARY       56  CELL              (1,6,6)   RATE     0.00000      RCH
 BOUNDARY       57  CELL              (1,6,7)   RATE     0.00000      RCH
 BOUNDARY       58  CELL              (1,6,8)   RATE     0.00000      RCH
 BOUNDARY       59  CELL              (1,6,9)   RATE     0.00000      RCH
 BOUNDARY       62  CELL              (1,7,2)   RATE     0.00000      RCH
 BOUNDARY       63  CELL              (1,7,3)   RATE     0.00000      RCH
 BOUNDARY       64  CELL              (1,7,4)   RATE     0.00000      RCH
 BOUNDARY       65  CELL              (1,7,5)   RATE     0.00000      RCH
 BOUNDARY       66  CELL              (1,7,6)   RATE     0.00000      RCH
 BOUNDARY       67  CELL              (1,7,7)   RATE     0.00000      RCH
 BOUNDARY       68  CELL              (1,7,8)   RATE     0.00000      RCH
 BOUNDARY       69  CELL              (1,7,9)   RATE     0.00000      RCH
 BOUNDARY       72  CELL              (1,8,2)   RATE     0.00000      RCH
 BOUNDARY       73  CELL              (1,8,3)   RATE     0.00000      RCH
 BOUNDARY       74  CELL              (1,8,4)   RATE     0.00000      RCH
 BOUNDARY       75  CELL              (1,8,5)   RATE     0.00000      RCH
 BOUNDARY       76  CELL              (1,8,6)   RATE     0.00000      RCH
 BOUNDARY       77  CELL              (1,8,7)   RATE     0.00000      RCH
 BOUNDARY       78  CELL              (1,8,8)   RATE     0.00000      RCH
 BOUNDARY       79  CELL              (1,8,9)   RATE     0.00000      RCH
 BOUNDARY       82  CELL              (1,9,2)   RATE     0.00000      RCH
 BOUNDARY       83  CELL              (1,9,3)   RATE     0.00000      RCH
 BOUNDARY       84  CELL              (1,9,4)   RATE     0.00000      RCH
 BOUNDARY       85  CELL              (1,9,5)   RATE     0.00000      RCH
 BOUNDARY       86  CELL              (1,9,6)   RATE     0.00000      RCH
 BOUNDARY       87  CELL              (1,9,7)   RATE     0.00000      RCH
 BOUNDARY       88  CELL              (1,9,8)   RATE     0.00000      RCH
 BOUNDARY       89  CELL              (1,9,9)   RATE     0.00000      RCH
 BOUNDARY       92  CELL             (1,10,2)   RATE     0.00000      RCH
 BOUNDARY       93  CELL             (1,10,3)   RATE     0.00000      RCH
 BOUNDARY       94  CELL             (1,10,4)   RATE     0.00000      RCH
 BOUNDARY       95  CELL             (1,10,5)   RATE     0.00000      RCH
 BOUNDARY       96  CELL             (1,10,6)   RATE     0.00000      RCH
 BOUNDARY       97  CELL             (1,10,7)   RATE     0.00000      RCH
 BOUNDARY       98  CELL             (1,10,8)   RATE     0.00000      RCH
 BOUNDARY       99  CELL             (1,10,9)   RATE     0.00000      RCH
 BOUNDARY      102  CELL             (1,11,2)   RATE     0.00000      RCH
 BOUNDARY      103  CELL             (1,11,3)   RATE     0.00000      RCH
 BOUNDARY      104  CELL             (1,11,4)   RATE     0.00000      RCH
 BOUNDARY      105  CELL             (1,11,5)   RATE     0.00000      RCH
 BOUNDARY      106  CELL             (1,11,6)   RATE     0.00000      RCH
 BOUNDARY      107  CELL             (1,11,7)   RATE     0.00000      RCH
 BOUNDARY      108  CELL             (1,11,8)   RATE     0.00000      RCH
 BOUNDARY      109  CELL             (1,11,9)   RATE     0.00000      RCH
 BOUNDARY      112  CELL             (1,12,2)   RATE     0.00000      RCH
 BOUNDARY      113  CELL             (1,12,3)   RATE     0.00000      RCH
 BOUNDARY      114  CELL             (1,12,4)   RATE     0.00000      RCH
 BOUNDARY      115  CELL             (1,12,5)   RATE     0.00000      RCH
 BOUNDARY      116  CELL             (1,12,6)   RATE     0.00000      RCH
 BOUNDARY      117  CELL             (1,12,7)   RATE     0.00000      RCH
 BOUNDARY      118  CELL             (1,12,8)   RATE     0.00000      RCH
 BOUNDARY      119  CELL             (1,12,9)   RATE     0.00000      RCH
 BOUNDARY      122  CELL             (1,13,2)   RATE     0.00000      RCH
 BOUNDARY      123  CELL             (1,13,3)   RATE     0.00000      RCH
 BOUNDARY      124  CELL             (1,13,4)   RATE     0.00000      RCH
 BOUNDARY      125  CELL             (1,13,5)   RATE     0.00000      RCH
 BOUNDARY      126  CELL             (1,13,6)   RATE     0.00000      RCH
 BOUNDARY      127  CELL             (1,13,7)   RATE     0.00000      RCH
 BOUNDARY      128  CELL             (1,13,8)   RATE     0.00000      RCH
 BOUNDARY      129  CELL             (1,13,9)   RATE     0.00000      RCH
 BOUNDARY      132  CELL             (1,14,2)   RATE     0.00000      RCH
 BOUNDARY      133  CELL             (1,14,3)   RATE     0.00000      RCH
 BOUNDARY      134  CELL             (1,14,4)   RATE     0.00000      RCH
 BOUNDARY      135  CELL             (1,14,5)   RATE     0.00000      RCH
 BOUNDARY      136  CELL             (1,14,6)   RATE     0.00000      RCH
 BOUNDARY      137  CELL             (1,14,7)   RATE     0.00000      RCH
 BOUNDARY      138  CELL             (1,14,8)   RATE     0.00000      RCH
 BOUNDARY      139  CELL             (1,14,9)   RATE     0.00000      RCH
 BOUNDARY      141  CELL             (1,15,1)   RATE     0.00000      RCH
 BOUNDARY      142  CELL             (1,15,2)   RATE     0.00000      RCH
 BOUNDARY      143  CELL             (1,15,3)   RATE     0.00000      RCH
 BOUNDARY      144  CELL             (1,15,4)   RATE     0.00000      RCH
 BOUNDARY      145  CELL             (1,15,5)   RATE     0.00000      RCH
 BOUNDARY      146  CELL             (1,15,6)   RATE     0.00000      RCH
 BOUNDARY      147  CELL             (1,15,7)   RATE     0.00000      RCH
 BOUNDARY      148  CELL             (1,15,8)   RATE     0.00000      RCH
 BOUNDARY      149  CELL             (1,15,9)   RATE     0.00000      RCH
 BOUNDARY      150  CELL            (1,15,10)   RATE     0.00000      RCH

1
  HEAD IN LAYER   1 AT END OF TIME STEP   1 IN STRESS PERIOD    1
  ---------------------------------------------------------------------------

                1               2               3               4               5               6               7               8               9              10
 ................................................................................................................................................................
   1      50.0000         50.0000         50.0000         50.0000         50.0000         50.0000         50.0000         50.0000         50.0000         50.0000    
   2      50.0000         50.0000         50.0000         50.0000         50.0000         50.0000         50.0000         50.0000         50.0000         50.0000    
   3      50.0000         50.0000         50.0000         50.0000         50.0000         50.0000         50.0000         50.0000         50.0000         50.0000    
   4      50.0000         50.0000         50.0000         50.0000         50.0000         50.0000         50.0000         50.0000         50.0000         50.0000    
   5      50.0000         50.0000         50.0000         50.0000         50.0000         50.0000         50.0000         50.0000         50.0000         50.0000    
   6      50.0000         50.0000         50.0000         50.0000         50.0000         50.0000         50.0000         50.0000         50.0000         50.0000    
   7      50.0000         50.0000         50.0000         50.0000         50.0000         50.0000         50.0000         50.0000         50.0000         50.0000    
   8      50.0000         50.0000         50.0000         50.0000         50.0000         50.0000         50.0000         50.0000         50.0000         50.0000    
   9      50.0000         50.0000         50.0000         50.0000         50.0000         50.0000         50.0000         50.0000         50.0000         50.0000    
  10      50.0000         50.0000         50.0000         50.0000         50.0000         50.0000         50.0000         50.0000         50.0000         50.0000    
  11      50.0000         50.0000         50.0000         50.0000         50.0000         50.0000         50.0000         50.0000         50.0000         50.0000    
  12      50.0000         50.0000         50.0000         50.0000         50.0000         50.0000         50.0000         50.0000         50.0000         50.0000    
  13      50.0000         50.0000         50.0000         50.0000         50.0000         50.0000         50.0000         50.0000         50.0000         50.0000    
  14      50.0000         50.0000         50.0000         50.0000         50.0000         50.0000         50.0000         50.0000         50.0000         50.0000    
  15      50.0000         50.0000         50.0000         50.0000         50.0000         50.0000         50.0000         50.0000         50.0000         50.0000    
1
  HEAD IN LAYER   2 AT END OF TIME STEP   1 IN STRESS PERIOD    1
  ---------------------------------------------------------------------------

                1               2               3               4               5               6               7               8               9              10
 ................................................................................................................................................................
   1      50.0000         50.0000         50.0000         50.0000         50.0000         50.0000         50.0000         50.0000         50.0000         50.0000    
   2      50.0000         50.0000         50.0000         50.0000         50.0000         50.0000         50.0000         50.0000         50.0000         50.0000    
   3      50.0000         50.0000         50.0000         50.0000         50.0000         50.0000         50.0000         50.0000         50.0000         50.0000    
   4      50.0000         50.0000         50.0000         50.0000         50.0000         50.0000         50.0000         50.0000         50.0000         50.0000    
   5      50.0000         50.0000         50.0000         50.0000         50.0000         50.0000         50.0000         50.0000         50.0000         50.0000    
   6      50.0000         50.0000         50.0000         50.0000         50.0000         50.0000         50.0000         50.0000         50.0000         50.0000    
   7      50.0000         50.0000         50.0000         50.0000         50.0000         50.0000         50.0000         50.0000         50.0000         50.0000    
   8      50.0000         50.0000         50.0000         50.0000         50.0000         50.0000         50.0000         50.0000         50.0000         50.0000    
   9      50.0000         50.0000         50.0000         50.0000         50.0000         50.0000         50.0000         50.0000         50.0000         50.0000    
  10      50.0000         50.0000         50.0000         50.0000         50.0000         50.0000         50.0000         50.0000         50.0000         50.0000    
  11      50.0000         50.0000         50.0000         50.0000         50.0000         50.0000         50.0000         50.0000         50.0000         50.0000    
  12      50.0000         50.0000         50.0000         50.0000         50.0000         50.0000         50.0000         50.0000         50.0000         50.0000    
  13      50.0000         50.0000         50.0000         50.0000         50.0000         50.0000         50.0000         50.0000         50.0000         50.0000    
  14      50.0000         50.0000         50.0000         50.0000         50.0000         50.0000         50.0000         50.0000         50.0000         50.0000    
  15      50.0000         50.0000         50.0000         50.0000         50.0000         50.0000         50.0000         50.0000         50.0000         50.0000    
1
  HEAD IN LAYER   3 AT END OF TIME STEP   1 IN STRESS PERIOD    1
  ---------------------------------------------------------------------------

                1               2               3               4               5               6               7               8               9              10
 ................................................................................................................................................................
   1      50.0000         50.0000         50.0000         50.0000         50.0000         50.0000         50.0000         50.0000         50.0000         50.0000    
   2      50.0000         50.0000         50.0000         50.0000         50.0000         50.0000         50.0000         50.0000         50.0000         50.0000    
   3      50.0000         50.0000         50.0000         50.0000         50.0000         50.0000         50.0000         50.0000         50.0000         50.0000    
   4      50.0000         50.0000         50.0000         50.0000         50.0000         50.0000         50.0000         50.0000         50.0000         50.0000    
   5      50.0000         50.0000         50.0000         50.0000         50.0000         50.0000         50.0000         50.0000         50.0000         50.0000    
   6      50.0000         50.0000         50.0000         50.0000         50.0000         50.0000         50.0000         50.0000         50.0000         50.0000    
   7      50.0000         50.0000         50.0000         50.0000         50.0000         50.0000         50.0000         50.0000         50.0000         50.0000    
   8      50.0000         50.0000         50.0000         50.0000         50.0000         50.0000         50.0000         50.0000         50.0000         50.0000    
   9      50.0000         50.0000         50.0000         50.0000         50.0000         50.0000         50.0000         50.0000         50.0000         50.0000    
  10      50.0000         50.0000         50.0000         50.0000         50.0000         50.0000         50.0000         50.0000         50.0000         50.0000    
  11      50.0000         50.0000         50.0000         50.0000         50.0000         50.0000         50.0000         50.0000         50.0000         50.0000    
  12      50.0000         50.0000         50.0000         50.0000         50.0000         50.0000         50.0000         50.0000         50.0000         50.0000    
  13      50.0000         50.0000         50.0000         50.0000         50.0000         50.0000         50.0000         50.0000         50.0000         50.0000    
  14      50.0000         50.0000         50.0000         50.0000         50.0000         50.0000         50.0000         50.0000         50.0000         50.0000    
  15      50.0000         50.0000         50.0000         50.0000         50.0000         50.0000         50.0000         50.0000         50.0000         50.0000    

 HEAD WILL BE SAVED ON UNIT 1017 AT END OF TIME STEP    1, STRESS PERIOD    1


  VOLUME BUDGET FOR ENTIRE MODEL AT END OF TIME STEP    1, STRESS PERIOD   1
  ---------------------------------------------------------------------------------------------------

     CUMULATIVE VOLUME      L**3       RATES FOR THIS TIME STEP      L**3/T          PACKAGE NAME    
     ------------------                 ------------------------                     ----------------

           IN:                                      IN:
           ---                                      ---
              STO-SS =           0.0000                STO-SS =           0.0000     STORAGE         
              STO-SY =           0.0000                STO-SY =           0.0000     STORAGE         
                 RCH =           0.0000                   RCH =           0.0000     RCH_1           
                 CHD =           0.0000                   CHD =           0.0000     CHD_0           

            TOTAL IN =           0.0000              TOTAL IN =           0.0000

          OUT:                                     OUT:
          ----                                     ----
              STO-SS =           0.0000                STO-SS =           0.0000     STORAGE         
              STO-SY =           0.0000                STO-SY =           0.0000     STORAGE         
                 RCH =           0.0000                   RCH =           0.0000     RCH_1           
                 CHD =           0.0000                   CHD =           0.0000     CHD_0           

           TOTAL OUT =           0.0000             TOTAL OUT =           0.0000

            IN - OUT =           0.0000              IN - OUT =           0.0000

 PERCENT DISCREPANCY =           0.00     PERCENT DISCREPANCY =           0.00




         TIME SUMMARY AT END OF TIME STEP    1 IN STRESS PERIOD    1
                    SECONDS     MINUTES      HOURS       DAYS        YEARS
                    -----------------------------------------------------------
   TIME STEP LENGTH  86400.      1440.0      24.000      1.0000     2.73785E-03
 STRESS PERIOD TIME  86400.      1440.0      24.000      1.0000     2.73785E-03
         TOTAL TIME  86400.      1440.0      24.000      1.0000     2.73785E-03

 END OF FILE DETECTED IN OUTPUT CONTROL.
 CURRENT OUTPUT CONTROL SETTINGS WILL BE 
 REPEATED UNTIL THE END OF THE SIMULATION.

 OUTPUT CONTROL FOR STRESS PERIOD 2 IS REPEATED USING SETTINGS FROM A PREVIOUS STRESS PERIOD.


 UPDATING STORAGE VALUES
 END UPDATING STORAGE VALUES


 STRESS PERIOD 2 IS TRANSIENT


 RCH NO.  LAYER    ROW    COL        RECHARGE   BOUNDARY NAME         MULTIPLIER      
 -------------------------------------------------------------------------------------
      1      1      1      1      0.1041E-02  RCH                                            1.000    
      2      1      1      2      0.1041E-02  RCH                                            1.000    
      3      1      1      3      0.1041E-02  RCH                                            1.000    
      4      1      1      4      0.1041E-02  RCH                                            1.000    
      5      1      1      5      0.1041E-02  RCH                                            1.000    
      6      1      1      6      0.1041E-02  RCH                                            1.000    
      7      1      1      7      0.1041E-02  RCH                                            1.000    
      8      1      1      8      0.1041E-02  RCH                                            1.000    
      9      1      1      9      0.1041E-02  RCH                                            1.000    
     10      1      1     10      0.1041E-02  RCH                                            1.000    
     11      1      2      1      0.1041E-02  RCH                                            1.000    
     12      1      2      2      0.1041E-02  RCH                                            1.000    
     13      1      2      3      0.1041E-02  RCH                                            1.000    
     14      1      2      4      0.1041E-02  RCH                                            1.000    
     15      1      2      5      0.1041E-02  RCH                                            1.000    
     16      1      2      6      0.1041E-02  RCH                                            1.000    
     17      1      2      7      0.1041E-02  RCH                                            1.000    
     18      1      2      8      0.1041E-02  RCH                                            1.000    
     19      1      2      9      0.1041E-02  RCH                                            1.000    
     20      1      2     10      0.1041E-02  RCH                                            1.000    
     21      1      3      1      0.1041E-02  RCH                                            1.000    
     22      1      3      2      0.1041E-02  RCH                                            1.000    
     23      1      3      3      0.1041E-02  RCH                                            1.000    
     24      1      3      4      0.1041E-02  RCH                                            1.000    
     25      1      3      5      0.1041E-02  RCH                                            1.000    
     26      1      3      6      0.1041E-02  RCH                                            1.000    
     27      1      3      7      0.1041E-02  RCH                                            1.000    
     28      1      3      8      0.1041E-02  RCH                                            1.000    
     29      1      3      9      0.1041E-02  RCH                                            1.000    
     30      1      3     10      0.1041E-02  RCH                                            1.000    
     31      1      4      1      0.1041E-02  RCH                                            1.000    
     32      1      4      2      0.1041E-02  RCH                                            1.000    
     33      1      4      3      0.1041E-02  RCH                                            1.000    
     34      1      4      4      0.1041E-02  RCH                                            1.000    
     35      1      4      5      0.1041E-02  RCH                                            1.000    
     36      1      4      6      0.1041E-02  RCH                                            1.000    
     37      1      4      7      0.1041E-02  RCH                                            1.000    
     38      1      4      8      0.1041E-02  RCH                                            1.000    
     39      1      4      9      0.1041E-02  RCH                                            1.000    
     40      1      4     10      0.1041E-02  RCH                                            1.000    
     41      1      5      1      0.1041E-02  RCH                                            1.000    
     42      1      5      2      0.1041E-02  RCH                                            1.000    
     43      1      5      3      0.1041E-02  RCH                                            1.000    
     44      1      5      4      0.1041E-02  RCH                                            1.000    
     45      1      5      5      0.1041E-02  RCH                                            1.000    
     46      1      5      6      0.1041E-02  RCH                                            1.000    
     47      1      5      7      0.1041E-02  RCH                                            1.000    
     48      1      5      8      0.1041E-02  RCH                                            1.000    
     49      1      5      9      0.1041E-02  RCH                                            1.000    
     50      1      5     10      0.1041E-02  RCH                                            1.000    
     51      1      6      1      0.1041E-02  RCH                                            1.000    
     52      1      6      2      0.1041E-02  RCH                                            1.000    
     53      1      6      3      0.1041E-02  RCH                                            1.000    
     54      1      6      4      0.1041E-02  RCH                                            1.000    
     55      1      6      5      0.1041E-02  RCH                                            1.000    
     56      1      6      6      0.1041E-02  RCH                                            1.000    
     57      1      6      7      0.1041E-02  RCH                                            1.000    
     58      1      6      8      0.1041E-02  RCH                                            1.000    
     59      1      6      9      0.1041E-02  RCH                                            1.000    
     60      1      6     10      0.1041E-02  RCH                                            1.000    
     61      1      7      1      0.1041E-02  RCH                                            1.000    
     62      1      7      2      0.1041E-02  RCH                                            1.000    
     63      1      7      3      0.1041E-02  RCH                                            1.000    
     64      1      7      4      0.1041E-02  RCH                                            1.000    
     65      1      7      5      0.1041E-02  RCH                                            1.000    
     66      1      7      6      0.1041E-02  RCH                                            1.000    
     67      1      7      7      0.1041E-02  RCH                                            1.000    
     68      1      7      8      0.1041E-02  RCH                                            1.000    
     69      1      7      9      0.1041E-02  RCH                                            1.000    
     70      1      7     10      0.1041E-02  RCH                                            1.000    
     71      1      8      1      0.1041E-02  RCH                                            1.000    
     72      1      8      2      0.1041E-02  RCH                                            1.000    
     73      1      8      3      0.1041E-02  RCH                                            1.000    
     74      1      8      4      0.1041E-02  RCH                                            1.000    
     75      1      8      5      0.1041E-02  RCH                                            1.000    
     76      1      8      6      0.1041E-02  RCH                                            1.000    
     77      1      8      7      0.1041E-02  RCH                                            1.000    
     78      1      8      8      0.1041E-02  RCH                                            1.000    
     79      1      8      9      0.1041E-02  RCH                                            1.000    
     80      1      8     10      0.1041E-02  RCH                                            1.000    
     81      1      9      1      0.1041E-02  RCH                                            1.000    
     82      1      9      2      0.1041E-02  RCH                                            1.000    
     83      1      9      3      0.1041E-02  RCH                                            1.000    
     84      1      9      4      0.1041E-02  RCH                                            1.000    
     85      1      9      5      0.1041E-02  RCH                                            1.000    
     86      1      9      6      0.1041E-02  RCH                                            1.000    
     87      1      9      7      0.1041E-02  RCH                                            1.000    
     88      1      9      8      0.1041E-02  RCH                                            1.000    
     89      1      9      9      0.1041E-02  RCH                                            1.000    
     90      1      9     10      0.1041E-02  RCH                                            1.000    
     91      1     10      1      0.1041E-02  RCH                                            1.000    
     92      1     10      2      0.1041E-02  RCH                                            1.000    
     93      1     10      3      0.1041E-02  RCH                                            1.000    
     94      1     10      4      0.1041E-02  RCH                                            1.000    
     95      1     10      5      0.1041E-02  RCH                                            1.000    
     96      1     10      6      0.1041E-02  RCH                                            1.000    
     97      1     10      7      0.1041E-02  RCH                                            1.000    
     98      1     10      8      0.1041E-02  RCH                                            1.000    
     99      1     10      9      0.1041E-02  RCH                                            1.000    
    100      1     10     10      0.1041E-02  RCH                                            1.000    
    101      1     11      1      0.1041E-02  RCH                                            1.000    
    102      1     11      2      0.1041E-02  RCH                                            1.000    
    103      1     11      3      0.1041E-02  RCH                                            1.000    
    104      1     11      4      0.1041E-02  RCH                                            1.000    
    105      1     11      5      0.1041E-02  RCH                                            1.000    
    106      1     11      6      0.1041E-02  RCH                                            1.000    
    107      1     11      7      0.1041E-02  RCH                                            1.000    
    108      1     11      8      0.1041E-02  RCH                                            1.000    
    109      1     11      9      0.1041E-02  RCH                                            1.000    
    110      1     11     10      0.1041E-02  RCH                                            1.000    
    111      1     12      1      0.1041E-02  RCH                                            1.000    
    112      1     12      2      0.1041E-02  RCH                                            1.000    
    113      1     12      3      0.1041E-02  RCH                                            1.000    
    114      1     12      4      0.1041E-02  RCH                                            1.000    
    115      1     12      5      0.1041E-02  RCH                                            1.000    
    116      1     12      6      0.1041E-02  RCH                                            1.000    
    117      1     12      7      0.1041E-02  RCH                                            1.000    
    118      1     12      8      0.1041E-02  RCH                                            1.000    
    119      1     12      9      0.1041E-02  RCH                                            1.000    
    120      1     12     10      0.1041E-02  RCH                                            1.000    
    121      1     13      1      0.1041E-02  RCH                                            1.000    
    122      1     13      2      0.1041E-02  RCH                                            1.000    
    123      1     13      3      0.1041E-02  RCH                                            1.000    
    124      1     13      4      0.1041E-02  RCH                                            1.000    
    125      1     13      5      0.1041E-02  RCH                                            1.000    
    126      1     13      6      0.1041E-02  RCH                                            1.000    
    127      1     13      7      0.1041E-02  RCH                                            1.000    
    128      1     13      8      0.1041E-02  RCH                                            1.000    
    129      1     13      9      0.1041E-02  RCH                                            1.000    
    130      1     13     10      0.1041E-02  RCH                                            1.000    
    131      1     14      1      0.1041E-02  RCH                                            1.000    
    132      1     14      2      0.1041E-02  RCH                                            1.000    
    133      1     14      3      0.1041E-02  RCH                                            1.000    
    134      1     14      4      0.1041E-02  RCH                                            1.000    
    135      1     14      5      0.1041E-02  RCH                                            1.000    
    136      1     14      6      0.1041E-02  RCH                                            1.000    
    137      1     14      7      0.1041E-02  RCH                                            1.000    
    138      1     14      8      0.1041E-02  RCH                                            1.000    
    139      1     14      9      0.1041E-02  RCH                                            1.000    
    140      1     14     10      0.1041E-02  RCH                                            1.000    
    141      1     15      1      0.1041E-02  RCH                                            1.000    
    142      1     15      2      0.1041E-02  RCH                                            1.000    
    143      1     15      3      0.1041E-02  RCH                                            1.000    
    144      1     15      4      0.1041E-02  RCH                                            1.000    
    145      1     15      5      0.1041E-02  RCH                                            1.000    
    146      1     15      6      0.1041E-02  RCH                                            1.000    
    147      1     15      7      0.1041E-02  RCH                                            1.000    
    148      1     15      8      0.1041E-02  RCH                                            1.000    
    149      1     15      9      0.1041E-02  RCH                                            1.000    
    150      1     15     10      0.1041E-02  RCH                                            1.000    

Time-series controlled values in stress period 2, time step 1:
"RCH_1" package: Boundary 1, RECHARGE value from time series "RCH_LU1" =  0.10415E-02 (RCH)
"RCH_1" package: Boundary 2, RECHARGE value from time series "RCH_LU1" =  0.10415E-02 (RCH)
"RCH_1" package: Boundary 3, RECHARGE value from time series "RCH_LU1" =  0.10415E-02 (RCH)
"RCH_1" package: Boundary 4, RECHARGE value from time series "RCH_LU1" =  0.10415E-02 (RCH)
"RCH_1" package: Boundary 5, RECHARGE value from time series "RCH_LU1" =  0.10415E-02 (RCH)
"RCH_1" package: Boundary 6, RECHARGE value from time series "RCH_LU1" =  0.10415E-02 (RCH)
"RCH_1" package: Boundary 7, RECHARGE value from time series "RCH_LU1" =  0.10415E-02 (RCH)
"RCH_1" package: Boundary 8, RECHARGE value from time series "RCH_LU1" =  0.10415E-02 (RCH)
"RCH_1" package: Boundary 9, RECHARGE value from time series "RCH_LU1" =  0.10415E-02 (RCH)
"RCH_1" package: Boundary 10, RECHARGE value from time series "RCH_LU1" =  0.10415E-02 (RCH)
"RCH_1" package: Boundary 11, RECHARGE value from time series "RCH_LU1" =  0.10415E-02 (RCH)
"RCH_1" package: Boundary 12, RECHARGE value from time series "RCH_LU1" =  0.10415E-02 (RCH)
"RCH_1" package: Boundary 13, RECHARGE value from time series "RCH_LU1" =  0.10415E-02 (RCH)
"RCH_1" package: Boundary 14, RECHARGE value from time series "RCH_LU1" =  0.10415E-02 (RCH)
"RCH_1" package: Boundary 15, RECHARGE value from time series "RCH_LU1" =  0.10415E-02 (RCH)
"RCH_1" package: Boundary 16, RECHARGE value from time series "RCH_LU1" =  0.10415E-02 (RCH)
"RCH_1" package: Boundary 17, RECHARGE value from time series "RCH_LU1" =  0.10415E-02 (RCH)
"RCH_1" package: Boundary 18, RECHARGE value from time series "RCH_LU1" =  0.10415E-02 (RCH)
"RCH_1" package: Boundary 19, RECHARGE value from time series "RCH_LU1" =  0.10415E-02 (RCH)
"RCH_1" package: Boundary 20, RECHARGE value from time series "RCH_LU1" =  0.10415E-02 (RCH)
"RCH_1" package: Boundary 21, RECHARGE value from time series "RCH_LU1" =  0.10415E-02 (RCH)
"RCH_1" package: Boundary 22, RECHARGE value from time series "RCH_LU1" =  0.10415E-02 (RCH)
"RCH_1" package: Boundary 23, RECHARGE value from time series "RCH_LU1" =  0.10415E-02 (RCH)
"RCH_1" package: Boundary 24, RECHARGE value from time series "RCH_LU1" =  0.10415E-02 (RCH)
"RCH_1" package: Boundary 25, RECHARGE value from time series "RCH_LU1" =  0.10415E-02 (RCH)
"RCH_1" package: Boundary 26, RECHARGE value from time series "RCH_LU1" =  0.10415E-02 (RCH)
"RCH_1" package: Boundary 27, RECHARGE value from time series "RCH_LU1" =  0.10415E-02 (RCH)
"RCH_1" package: Boundary 28, RECHARGE value from time series "RCH_LU1" =  0.10415E-02 (RCH)
"RCH_1" package: Boundary 29, RECHARGE value from time series "RCH_LU1" =  0.10415E-02 (RCH)
"RCH_1" package: Boundary 30, RECHARGE value from time series "RCH_LU1" =  0.10415E-02 (RCH)
"RCH_1" package: Boundary 31, RECHARGE value from time series "RCH_LU1" =  0.10415E-02 (RCH)
"RCH_1" package: Boundary 32, RECHARGE value from time series "RCH_LU1" =  0.10415E-02 (RCH)
"RCH_1" package: Boundary 33, RECHARGE value from time series "RCH_LU1" =  0.10415E-02 (RCH)
"RCH_1" package: Boundary 34, RECHARGE value from time series "RCH_LU1" =  0.10415E-02 (RCH)
"RCH_1" package: Boundary 35, RECHARGE value from time series "RCH_LU1" =  0.10415E-02 (RCH)
"RCH_1" package: Boundary 36, RECHARGE value from time series "RCH_LU1" =  0.10415E-02 (RCH)
"RCH_1" package: Boundary 37, RECHARGE value from time series "RCH_LU1" =  0.10415E-02 (RCH)
"RCH_1" package: Boundary 38, RECHARGE value from time series "RCH_LU1" =  0.10415E-02 (RCH)
"RCH_1" package: Boundary 39, RECHARGE value from time series "RCH_LU1" =  0.10415E-02 (RCH)
"RCH_1" package: Boundary 40, RECHARGE value from time series "RCH_LU1" =  0.10415E-02 (RCH)
"RCH_1" package: Boundary 41, RECHARGE value from time series "RCH_LU1" =  0.10415E-02 (RCH)
"RCH_1" package: Boundary 42, RECHARGE value from time series "RCH_LU1" =  0.10415E-02 (RCH)
"RCH_1" package: Boundary 43, RECHARGE value from time series "RCH_LU1" =  0.10415E-02 (RCH)
"RCH_1" package: Boundary 44, RECHARGE value from time series "RCH_LU1" =  0.10415E-02 (RCH)
"RCH_1" package: Boundary 45, RECHARGE value from time series "RCH_LU1" =  0.10415E-02 (RCH)
"RCH_1" package: Boundary 46, RECHARGE value from time series "RCH_LU1" =  0.10415E-02 (RCH)
"RCH_1" package: Boundary 47, RECHARGE value from time series "RCH_LU1" =  0.10415E-02 (RCH)
"RCH_1" package: Boundary 48, RECHARGE value from time series "RCH_LU1" =  0.10415E-02 (RCH)
"RCH_1" package: Boundary 49, RECHARGE value from time series "RCH_LU1" =  0.10415E-02 (RCH)
"RCH_1" package: Boundary 50, RECHARGE value from time series "RCH_LU1" =  0.10415E-02 (RCH)
"RCH_1" package: Boundary 51, RECHARGE value from time series "RCH_LU1" =  0.10415E-02 (RCH)
"RCH_1" package: Boundary 52, RECHARGE value from time series "RCH_LU1" =  0.10415E-02 (RCH)
"RCH_1" package: Boundary 53, RECHARGE value from time series "RCH_LU1" =  0.10415E-02 (RCH)
"RCH_1" package: Boundary 54, RECHARGE value from time series "RCH_LU1" =  0.10415E-02 (RCH)
"RCH_1" package: Boundary 55, RECHARGE value from time series "RCH_LU1" =  0.10415E-02 (RCH)
"RCH_1" package: Boundary 56, RECHARGE value from time series "RCH_LU1" =  0.10415E-02 (RCH)
"RCH_1" package: Boundary 57, RECHARGE value from time series "RCH_LU1" =  0.10415E-02 (RCH)
"RCH_1" package: Boundary 58, RECHARGE value from time series "RCH_LU1" =  0.10415E-02 (RCH)
"RCH_1" package: Boundary 59, RECHARGE value from time series "RCH_LU1" =  0.10415E-02 (RCH)
"RCH_1" package: Boundary 60, RECHARGE value from time series "RCH_LU1" =  0.10415E-02 (RCH)
"RCH_1" package: Boundary 61, RECHARGE value from time series "RCH_LU1" =  0.10415E-02 (RCH)
"RCH_1" package: Boundary 62, RECHARGE value from time series "RCH_LU1" =  0.10415E-02 (RCH)
"RCH_1" package: Boundary 63, RECHARGE value from time series "RCH_LU1" =  0.10415E-02 (RCH)
"RCH_1" package: Boundary 64, RECHARGE value from time series "RCH_LU1" =  0.10415E-02 (RCH)
"RCH_1" package: Boundary 65, RECHARGE value from time series "RCH_LU1" =  0.10415E-02 (RCH)
"RCH_1" package: Boundary 66, RECHARGE value from time series "RCH_LU1" =  0.10415E-02 (RCH)
"RCH_1" package: Boundary 67, RECHARGE value from time series "RCH_LU1" =  0.10415E-02 (RCH)
"RCH_1" package: Boundary 68, RECHARGE value from time series "RCH_LU1" =  0.10415E-02 (RCH)
[...]
 BOUNDARY        5  CELL              (1,1,5)   RATE     27.5269      RCH
 BOUNDARY        6  CELL              (1,1,6)   RATE     27.5269      RCH
 BOUNDARY        7  CELL              (1,1,7)   RATE     27.5269      RCH
 BOUNDARY        8  CELL              (1,1,8)   RATE     27.5269      RCH
 BOUNDARY        9  CELL              (1,1,9)   RATE     27.5269      RCH
 BOUNDARY       12  CELL              (1,2,2)   RATE     27.5269      RCH
 BOUNDARY       13  CELL              (1,2,3)   RATE     27.5269      RCH
 BOUNDARY       14  CELL              (1,2,4)   RATE     27.5269      RCH
 BOUNDARY       15  CELL              (1,2,5)   RATE     27.5269      RCH
 BOUNDARY       16  CELL              (1,2,6)   RATE     27.5269      RCH
 BOUNDARY       17  CELL              (1,2,7)   RATE     27.5269      RCH
 BOUNDARY       18  CELL              (1,2,8)   RATE     27.5269      RCH
 BOUNDARY       19  CELL              (1,2,9)   RATE     27.5269      RCH
 BOUNDARY       22  CELL              (1,3,2)   RATE     27.5269      RCH
 BOUNDARY       23  CELL              (1,3,3)   RATE     27.5269      RCH
 BOUNDARY       24  CELL              (1,3,4)   RATE     27.5269      RCH
 BOUNDARY       25  CELL              (1,3,5)   RATE     27.5269      RCH
 BOUNDARY       26  CELL              (1,3,6)   RATE     27.5269      RCH
 BOUNDARY       27  CELL              (1,3,7)   RATE     27.5269      RCH
 BOUNDARY       28  CELL              (1,3,8)   RATE     27.5269      RCH
 BOUNDARY       29  CELL              (1,3,9)   RATE     27.5269      RCH
 BOUNDARY       32  CELL              (1,4,2)   RATE     27.5269      RCH
 BOUNDARY       33  CELL              (1,4,3)   RATE     27.5269      RCH
 BOUNDARY       34  CELL              (1,4,4)   RATE     27.5269      RCH
 BOUNDARY       35  CELL              (1,4,5)   RATE     27.5269      RCH
 BOUNDARY       36  CELL              (1,4,6)   RATE     27.5269      RCH
 BOUNDARY       37  CELL              (1,4,7)   RATE     27.5269      RCH
 BOUNDARY       38  CELL              (1,4,8)   RATE     27.5269      RCH
 BOUNDARY       39  CELL              (1,4,9)   RATE     27.5269      RCH
 BOUNDARY       42  CELL              (1,5,2)   RATE     27.5269      RCH
 BOUNDARY       43  CELL              (1,5,3)   RATE     27.5269      RCH
 BOUNDARY       44  CELL              (1,5,4)   RATE     27.5269      RCH
 BOUNDARY       45  CELL              (1,5,5)   RATE     27.5269      RCH
 BOUNDARY       46  CELL              (1,5,6)   RATE     27.5269      RCH
 BOUNDARY       47  CELL              (1,5,7)   RATE     27.5269      RCH
 BOUNDARY       48  CELL              (1,5,8)   RATE     27.5269      RCH
 BOUNDARY       49  CELL              (1,5,9)   RATE     27.5269      RCH
 BOUNDARY       52  CELL              (1,6,2)   RATE     27.5269      RCH
 BOUNDARY       53  CELL              (1,6,3)   RATE     27.5269      RCH
 BOUNDARY       54  CELL              (1,6,4)   RATE     27.5269      RCH
 BOUNDARY       55  CELL              (1,6,5)   RATE     27.5269      RCH
 BOUNDARY       56  CELL              (1,6,6)   RATE     27.5269      RCH
 BOUNDARY       57  CELL              (1,6,7)   RATE     27.5269      RCH
 BOUNDARY       58  CELL              (1,6,8)   RATE     27.5269      RCH
 BOUNDARY       59  CELL              (1,6,9)   RATE     27.5269      RCH
 BOUNDARY       62  CELL              (1,7,2)   RATE     27.5269      RCH
 BOUNDARY       63  CELL              (1,7,3)   RATE     27.5269      RCH
 BOUNDARY       64  CELL              (1,7,4)   RATE     27.5269      RCH
 BOUNDARY       65  CELL              (1,7,5)   RATE     27.5269      RCH
 BOUNDARY       66  CELL              (1,7,6)   RATE     27.5269      RCH
 BOUNDARY       67  CELL              (1,7,7)   RATE     27.5269      RCH
 BOUNDARY       68  CELL              (1,7,8)   RATE     27.5269      RCH
 BOUNDARY       69  CELL              (1,7,9)   RATE     27.5269      RCH
 BOUNDARY       72  CELL              (1,8,2)   RATE     27.5269      RCH
 BOUNDARY       73  CELL              (1,8,3)   RATE     27.5269      RCH
 BOUNDARY       74  CELL              (1,8,4)   RATE     27.5269      RCH
 BOUNDARY       75  CELL              (1,8,5)   RATE     27.5269      RCH
 BOUNDARY       76  CELL              (1,8,6)   RATE     27.5269      RCH
 BOUNDARY       77  CELL              (1,8,7)   RATE     27.5269      RCH
 BOUNDARY       78  CELL              (1,8,8)   RATE     27.5269      RCH
 BOUNDARY       79  CELL              (1,8,9)   RATE     27.5269      RCH
 BOUNDARY       82  CELL              (1,9,2)   RATE     27.5269      RCH
 BOUNDARY       83  CELL              (1,9,3)   RATE     27.5269      RCH
 BOUNDARY       84  CELL              (1,9,4)   RATE     27.5269      RCH
 BOUNDARY       85  CELL              (1,9,5)   RATE     27.5269      RCH
 BOUNDARY       86  CELL              (1,9,6)   RATE     27.5269      RCH
 BOUNDARY       87  CELL              (1,9,7)   RATE     27.5269      RCH
 BOUNDARY       88  CELL              (1,9,8)   RATE     27.5269      RCH
 BOUNDARY       89  CELL              (1,9,9)   RATE     27.5269      RCH
 BOUNDARY       92  CELL             (1,10,2)   RATE     27.5269      RCH
 BOUNDARY       93  CELL             (1,10,3)   RATE     27.5269      RCH
 BOUNDARY       94  CELL             (1,10,4)   RATE     27.5269      RCH
 BOUNDARY       95  CELL             (1,10,5)   RATE     27.5269      RCH
 BOUNDARY       96  CELL             (1,10,6)   RATE     27.5269      RCH
 BOUNDARY       97  CELL             (1,10,7)   RATE     27.5269      RCH
 BOUNDARY       98  CELL             (1,10,8)   RATE     27.5269      RCH
 BOUNDARY       99  CELL             (1,10,9)   RATE     27.5269      RCH
 BOUNDARY      102  CELL             (1,11,2)   RATE     27.5269      RCH
 BOUNDARY      103  CELL             (1,11,3)   RATE     27.5269      RCH
 BOUNDARY      104  CELL             (1,11,4)   RATE     27.5269      RCH
 BOUNDARY      105  CELL             (1,11,5)   RATE     27.5269      RCH
 BOUNDARY      106  CELL             (1,11,6)   RATE     27.5269      RCH
 BOUNDARY      107  CELL             (1,11,7)   RATE     27.5269      RCH
 BOUNDARY      108  CELL             (1,11,8)   RATE     27.5269      RCH
 BOUNDARY      109  CELL             (1,11,9)   RATE     27.5269      RCH
 BOUNDARY      112  CELL             (1,12,2)   RATE     27.5269      RCH
 BOUNDARY      113  CELL             (1,12,3)   RATE     27.5269      RCH
 BOUNDARY      114  CELL             (1,12,4)   RATE     27.5269      RCH
 BOUNDARY      115  CELL             (1,12,5)   RATE     27.5269      RCH
 BOUNDARY      116  CELL             (1,12,6)   RATE     27.5269      RCH
 BOUNDARY      117  CELL             (1,12,7)   RATE     27.5269      RCH
 BOUNDARY      118  CELL             (1,12,8)   RATE     27.5269      RCH
 BOUNDARY      119  CELL             (1,12,9)   RATE     27.5269      RCH
 BOUNDARY      122  CELL             (1,13,2)   RATE     27.5269      RCH
 BOUNDARY      123  CELL             (1,13,3)   RATE     27.5269      RCH
 BOUNDARY      124  CELL             (1,13,4)   RATE     27.5269      RCH
 BOUNDARY      125  CELL             (1,13,5)   RATE     27.5269      RCH
 BOUNDARY      126  CELL             (1,13,6)   RATE     27.5269      RCH
 BOUNDARY      127  CELL             (1,13,7)   RATE     27.5269      RCH
 BOUNDARY      128  CELL             (1,13,8)   RATE     27.5269      RCH
 BOUNDARY      129  CELL             (1,13,9)   RATE     27.5269      RCH
 BOUNDARY      132  CELL             (1,14,2)   RATE     27.5269      RCH
 BOUNDARY      133  CELL             (1,14,3)   RATE     27.5269      RCH
 BOUNDARY      134  CELL             (1,14,4)   RATE     27.5269      RCH
 BOUNDARY      135  CELL             (1,14,5)   RATE     27.5269      RCH
 BOUNDARY      136  CELL             (1,14,6)   RATE     27.5269      RCH
 BOUNDARY      137  CELL             (1,14,7)   RATE     27.5269      RCH
 BOUNDARY      138  CELL             (1,14,8)   RATE     27.5269      RCH
 BOUNDARY      139  CELL             (1,14,9)   RATE     27.5269      RCH
 BOUNDARY      141  CELL             (1,15,1)   RATE     27.5269      RCH
 BOUNDARY      142  CELL             (1,15,2)   RATE     27.5269      RCH
 BOUNDARY      143  CELL             (1,15,3)   RATE     27.5269      RCH
 BOUNDARY      144  CELL             (1,15,4)   RATE     27.5269      RCH
 BOUNDARY      145  CELL             (1,15,5)   RATE     27.5269      RCH
 BOUNDARY      146  CELL             (1,15,6)   RATE     27.5269      RCH
 BOUNDARY      147  CELL             (1,15,7)   RATE     27.5269      RCH
 BOUNDARY      148  CELL             (1,15,8)   RATE     27.5269      RCH
 BOUNDARY      149  CELL             (1,15,9)   RATE     27.5269      RCH
 BOUNDARY      150  CELL            (1,15,10)   RATE     27.5269      RCH

1
  HEAD IN LAYER   1 AT END OF TIME STEP 120 IN STRESS PERIOD    2
  ---------------------------------------------------------------------------

                1               2               3               4               5               6               7               8               9              10
 ................................................................................................................................................................
   1      50.0000         50.3349         50.5467         50.6734         50.7331         50.7331         50.6734         50.5467         50.3349         50.0000    
   2      50.0000         50.3350         50.5468         50.6736         50.7333         50.7333         50.6736         50.5468         50.3350         50.0000    
   3      50.0000         50.3352         50.5472         50.6740         50.7338         50.7338         50.6740         50.5472         50.3352         50.0000    
   4      50.0000         50.3355         50.5478         50.6748         50.7347         50.7347         50.6748         50.5478         50.3355         50.0000    
   5      50.0000         50.3360         50.5486         50.6758         50.7358         50.7358         50.6758         50.5486         50.3360         50.0000    
   6      50.0000         50.3367         50.5498         50.6773         50.7374         50.7374         50.6773         50.5498         50.3367         50.0000    
   7      50.0000         50.3377         50.5514         50.6793         50.7396         50.7396         50.6793         50.5514         50.3377         50.0000    
   8      50.0000         50.3390         50.5535         50.6819         50.7425         50.7425         50.6819         50.5535         50.3390         50.0000    
   9      50.0000         50.3407         50.5564         50.6854         50.7463         50.7463         50.6854         50.5564         50.3407         50.0000    
  10      50.0000         50.3432         50.5604         50.6901         50.7512         50.7512         50.6901         50.5604         50.3432         50.0000    
  11      50.0000         50.3469         50.5659         50.6962         50.7574         50.7574         50.6962         50.5659         50.3469         50.0000    
  12      50.0000         50.3531         50.5739         50.7042         50.7651         50.7651         50.7042         50.5739         50.3531         50.0000    
  13      50.0000         50.3650         50.5864         50.7146         50.7741         50.7741         50.7146         50.5864         50.3650         50.0000    
  14      50.0000         50.3938         50.6063         50.7270         50.7832         50.7832         50.7270         50.6063         50.3938         50.0000    
  15      50.3093         50.4804         50.6344         50.7385         50.7899         50.7899         50.7385         50.6344         50.4804         50.3093    
1
  HEAD IN LAYER   2 AT END OF TIME STEP 120 IN STRESS PERIOD    2
  ---------------------------------------------------------------------------

                1               2               3               4               5               6               7               8               9              10
 ................................................................................................................................................................
   1      50.0000         50.3365         50.4959         50.5976         50.6474         50.6474         50.5976         50.4959         50.3365         50.0000    
   2      50.0000         50.3367         50.4961         50.5978         50.6476         50.6476         50.5978         50.4961         50.3367         50.0000    
   3      50.0000         50.3369         50.4965         50.5983         50.6481         50.6481         50.5983         50.4965         50.3369         50.0000    
   4      50.0000         50.3374         50.4971         50.5990         50.6490         50.6490         50.5990         50.4971         50.3374         50.0000    
   5      50.0000         50.3380         50.4980         50.6001         50.6502         50.6502         50.6001         50.4980         50.3380         50.0000    
   6      50.0000         50.3389         50.4993         50.6017         50.6518         50.6518         50.6017         50.4993         50.3389         50.0000    
   7      50.0000         50.3402         50.5010         50.6037         50.6540         50.6540         50.6037         50.5010         50.3402         50.0000    
   8      50.0000         50.3419         50.5034         50.6065         50.6570         50.6570         50.6065         50.5034         50.3419         50.0000    
   9      50.0000         50.3442         50.5066         50.6101         50.6608         50.6608         50.6101         50.5066         50.3442         50.0000    
  10      50.0000         50.3475         50.5109         50.6149         50.6658         50.6658         50.6149         50.5109         50.3475         50.0000    
  11      50.0000         50.3523         50.5168         50.6211         50.6720         50.6720         50.6211         50.5168         50.3523         50.0000    
  12      50.0000         50.3595         50.5250         50.6291         50.6796         50.6796         50.6291         50.5250         50.3595         50.0000    
  13      50.0000         50.3719         50.5367         50.6388         50.6881         50.6881         50.6388         50.5367         50.3719         50.0000    
  14      50.0000         50.3962         50.5535         50.6498         50.6965         50.6965         50.6498         50.5535         50.3962         50.0000    
  15      50.3322         50.4554         50.5743         50.6591         50.7023         50.7023         50.6591         50.5743         50.4554         50.3322    
1
  HEAD IN LAYER   3 AT END OF TIME STEP 120 IN STRESS PERIOD    2
  ---------------------------------------------------------------------------

                1               2               3               4               5               6               7               8               9              10
 ................................................................................................................................................................
   1      50.2512         50.3410         50.4329         50.5031         50.5403         50.5403         50.5031         50.4329         50.3410         50.2512    
   2      50.2513         50.3412         50.4331         50.5033         50.5406         50.5406         50.5033         50.4331         50.3412         50.2513    
   3      50.2516         50.3415         50.4336         50.5038         50.5411         50.5411         50.5038         50.4336         50.3415         50.2516    
   4      50.2520         50.3421         50.4343         50.5046         50.5420         50.5420         50.5046         50.4343         50.3421         50.2520    
   5      50.2527         50.3429         50.4353         50.5058         50.5432         50.5432         50.5058         50.4353         50.3429         50.2527    
   6      50.2537         50.3441         50.4367         50.5074         50.5449         50.5449         50.5074         50.4367         50.3441         50.2537    
   7      50.2550         50.3458         50.4387         50.5096         50.5472         50.5472         50.5096         50.4387         50.3458         50.2550    
   8      50.2568         50.3480         50.4413         50.5125         50.5503         50.5503         50.5125         50.4413         50.3480         50.2568    
   9      50.2593         50.3511         50.4448         50.5163         50.5542         50.5542         50.5163         50.4448         50.3511         50.2593    
  10      50.2629         50.3554         50.4496         50.5213         50.5593         50.5593         50.5213         50.4496         50.3554         50.2629    
  11      50.2683         50.3615         50.4559         50.5276         50.5655         50.5655         50.5276         50.4559         50.3615         50.2683    
  12      50.2765         50.3702         50.4644         50.5354         50.5728         50.5728         50.5354         50.4644         50.3702         50.2765    
  13      50.2901         50.3832         50.4753         50.5444         50.5808         50.5808         50.5444         50.4753         50.3832         50.2901    
  14      50.3144         50.4020         50.4882         50.5535         50.5883         50.5883         50.5535         50.4882         50.4020         50.3144    
  15      50.3638         50.4251         50.4997         50.5601         50.5930         50.5930         50.5601         50.4997         50.4251         50.3638    

 HEAD WILL BE SAVED ON UNIT 1017 AT END OF TIME STEP  120, STRESS PERIOD    2


  VOLUME BUDGET FOR ENTIRE MODEL AT END OF TIME STEP  120, STRESS PERIOD   2
  ---------------------------------------------------------------------------------------------------

     CUMULATIVE VOLUME      L**3       RATES FOR THIS TIME STEP      L**3/T          PACKAGE NAME    
     ------------------                 ------------------------                     ----------------

           IN:                                      IN:
           ---                                      ---
              STO-SS =      418224.5306                STO-SS =           0.0000     STORAGE         
              STO-SY =           0.0000                STO-SY =           0.0000     STORAGE         
                 RCH =    50660228.0101                   RCH =        3358.2848     RCH_1           
                 CHD =           0.0000                   CHD =           0.0000     CHD_0           

            TOTAL IN =    51078452.5407              TOTAL IN =        3358.2848

          OUT:                                     OUT:
          ----                                     ----
              STO-SS =      420730.1525                STO-SS =          81.1224     STORAGE         
              STO-SY =           0.0000                STO-SY =           0.0000     STORAGE         
                 RCH =           0.0000                   RCH =           0.0000     RCH_1           
                 CHD =    50657722.3973                   CHD =        3277.1623     CHD_0           

           TOTAL OUT =    51078452.5498             TOTAL OUT =        3358.2847

            IN - OUT =      -9.1232E-03              IN - OUT =       1.1149E-04

 PERCENT DISCREPANCY =          -0.00     PERCENT DISCREPANCY =           0.00




         TIME SUMMARY AT END OF TIME STEP  120 IN STRESS PERIOD    2
                    SECONDS     MINUTES      HOURS       DAYS        YEARS
                    -----------------------------------------------------------
   TIME STEP LENGTH 2.62800E+06  43800.      730.00      30.417     8.32763E-02
 STRESS PERIOD TIME 3.15360E+08 5.25600E+06  87600.      3650.0      9.9932    
         TOTAL TIME 3.15446E+08 5.25744E+06  87624.      3651.0      9.9959    
