                                   MODFLOW 6
                U.S. GEOLOGICAL SURVEY MODULAR HYDROLOGIC MODEL
                            VERSION 6.0.5 03/31/2019
                               ***DEVELOP MODE***

   MODFLOW 6 compiled Apr 20 2019 07:46:54 with IFORT compiler (ver. 18.0.2)

This software is preliminary or provisional and is subject to 
revision. It is being provided to meet the need for timely best 
science. The software has not received final approval by the U.S. 
Geological Survey (USGS). No warranty, expressed or implied, is made 
by the USGS or the U.S. Government as to the functionality of the 
software and related material nor shall the fact of release 
constitute any such warranty. The software is provided on the 
condition that neither the USGS nor the U.S. Government shall be held 
liable for any damages resulting from the authorized or unauthorized 
use of the software.


System command used to initiate simulation:
mf6

MODFLOW was compiled using uniform precision.
Real Variables
  PRECISION: 15
  KIND: 8
  TINY (smallest non-zero value):    2.225074-308
  HUGE (largest value):    1.797693+308
Integer Variables
  KIND: 4
  HUGE (largest value): 2147483647
  BIT_SIZE: 32
 

 OPENED mfsim.nam
 FILE TYPE:NAM   UNIT 1001   STATUS:OLD                 
 FORMAT:FORMATTED              ACCESS:SEQUENTIAL          
 ACTION:READ                


 READING SIMULATION OPTIONS
 END OF SIMULATION OPTIONS

 READING SIMULATION TIMING

 OPENED lumpyflo.tdis
 FILE TYPE:TDIS   UNIT 1002   STATUS:OLD                 
 FORMAT:FORMATTED              ACCESS:SEQUENTIAL          
 ACTION:READ                


 TDIS -- TEMPORAL DISCRETIZATION PACKAGE,
 VERSION 1 : 11/13/2014 - INPUT READ FROM UNIT 1002
 PROCESSING TDIS OPTIONS
    SIMULATION TIME UNIT IS DAYS
 END OF TDIS OPTIONS
 PROCESSING TDIS DIMENSIONS
    2 STRESS PERIOD(S) IN SIMULATION
 END OF TDIS DIMENSIONS
 PROCESSING TDIS PERIODDATA


 STRESS PERIOD     LENGTH       TIME STEPS     MULTIPLIER FOR DELT
 ----------------------------------------------------------------------------
        1         1.000000          1                    1.000
        2         3650.000        120                    1.000
 END OF TDIS PERIODDATA
 END OF SIMULATION TIMING

 READING SIMULATION MODELS
    GWF6 model GWF will be created as model 1
 END OF SIMULATION MODELS

 READING SIMULATION EXCHANGES
 END OF SIMULATION EXCHANGES

 READING SOLUTIONGROUP

 Creating solution: SLN_1           

 OPENED lumpyflo.ims
 FILE TYPE:IMS   UNIT 1012   STATUS:OLD                 
 FORMAT:FORMATTED              ACCESS:SEQUENTIAL          
 ACTION:READ                

 END OF SIMULATION SOLUTIONGROUP

 IMS -- ITERATIVE MODEL SOLUTION PACKAGE, VERSION 6, 4/28/2017
         INPUT READ FROM UNIT 1012

 PROCESSING IMS OPTIONS
 SIMPLE OPTION:
 DEFAULT SOLVER INPUT VALUES FOR FAST SOLUTIONS
 END OF IMS OPTIONS

 PROCESSING IMS NONLINEAR
 END OF IMS NONLINEAR DATA
 ***UNDER-RELAXATION WILL NOT BE USED***
 
 ***IMS LINEAR SOLVER WILL BE USED***

 IMSLINEAR -- UNSTRUCTURED LINEAR SOLUTION PACKAGE, VERSION 8, 04/28/2017

 PROCESSING LINEAR DATA
 END OF LINEAR DATA
 
 OUTER ITERATION CONVERGENCE CRITERION     (HCLOSE) =    0.100000E-03
 OUTER ITERATION BOUNDARY FLOW RESIDUAL (RCLOSEBND) =    0.100000E+00
 MAXIMUM NUMBER OF OUTER ITERATIONS        (MXITER) =       500
 SOLVER PRINTOUT INDEX                     (IPRIMS) =         1
 NONLINEAR ITERATION METHOD            (NONLINMETH) =         0
 LINEAR SOLUTION METHOD                   (LINMETH) =         1

       SOLUTION BY THE        CONJUGATE-GRADIENT       METHOD
 ------------------------------------------------------------------
 MAXIMUM OF    500 CALLS OF SOLUTION ROUTINE
 MAXIMUM OF    100 INTERNAL ITERATIONS PER CALL TO SOLUTION ROUTINE
 LINEAR ACCELERATION METHOD            = CG        
 MATRIX PRECONDITIONING TYPE           = MOD. INCOMPLETE LU  
 MATRIX SCALING APPROACH               = NO SCALING          
 MATRIX REORDERING APPROACH            = ORIGINAL ORDERING        
 NUMBER OF ORTHOGONALIZATIONS          =        0
 HEAD CHANGE CRITERION FOR CLOSURE     =    0.10000E-03
 RESIDUAL CHANGE CRITERION FOR CLOSURE =    0.10000E-02
 RESIDUAL CONVERGENCE OPTION           =        0
 RESIDUAL CONVERGENCE NORM             = INFINITY NORM   
 RELAXATION FACTOR                     =    0.97000E+00



1
                            STRESS PERIOD NO.    1, LENGTH =   1.000000    
                            -----------------------------------------------

                              NUMBER OF TIME STEPS =     1

                               MULTIPLIER FOR DELT =     1.000

                            INITIAL TIME STEP SIZE =   1.000000    


 OUTER ITERATION SUMMARY
 ---------------------------------------------------------------------------------------
                       OUTER     INNER         MAXIMUM                    MAXIMUM CHANGE
                   ITERATION ITERATION          CHANGE                    MODEL-(CELLID)
 ---------------------------------------------------------------------------------------
 Linear Solver             1         1     0.00000                       1_GWF-(3,15,10)

 1 CALLS TO NUMERICAL SOLUTION IN TIME STEP 1 STRESS PERIOD 1
 1 TOTAL ITERATIONS
1
                            STRESS PERIOD NO.    2, LENGTH =   3650.000    
                            -----------------------------------------------

                              NUMBER OF TIME STEPS =   120

                               MULTIPLIER FOR DELT =     1.000

                            INITIAL TIME STEP SIZE =   30.41667    


 OUTER ITERATION SUMMARY
 ---------------------------------------------------------------------------------------
                       OUTER     INNER         MAXIMUM                    MAXIMUM CHANGE
                   ITERATION ITERATION          CHANGE                    MODEL-(CELLID)
 ---------------------------------------------------------------------------------------
 Linear Solver             1        14     7.46862                        1_GWF-(1,15,5)
 Under-relaxation          1               7.46862                        1_GWF-(1,15,5)
 Linear Solver             2         1   -9.244126E-07                    1_GWF-(2,15,7)

 2 CALLS TO NUMERICAL SOLUTION IN TIME STEP 1 STRESS PERIOD 2
 15 TOTAL ITERATIONS


 OUTER ITERATION SUMMARY
 ---------------------------------------------------------------------------------------
                       OUTER     INNER         MAXIMUM                    MAXIMUM CHANGE
                   ITERATION ITERATION          CHANGE                    MODEL-(CELLID)
 ---------------------------------------------------------------------------------------
 Linear Solver             1        13    -1.05441                        1_GWF-(1,15,5)
 Under-relaxation          1              -1.05441                        1_GWF-(1,15,5)
 Linear Solver             2         1    4.765841E-07                    1_GWF-(2,15,8)

 2 CALLS TO NUMERICAL SOLUTION IN TIME STEP 2 STRESS PERIOD 2
 14 TOTAL ITERATIONS


 OUTER ITERATION SUMMARY
 ---------------------------------------------------------------------------------------
                       OUTER     INNER         MAXIMUM                    MAXIMUM CHANGE
                   ITERATION ITERATION          CHANGE                    MODEL-(CELLID)
 ---------------------------------------------------------------------------------------
 Linear Solver             1        13    -3.90258                        1_GWF-(1,15,5)
 Under-relaxation          1              -3.90258                        1_GWF-(1,15,5)
 Linear Solver             2         1    1.830835E-06                    1_GWF-(2,15,8)

 2 CALLS TO NUMERICAL SOLUTION IN TIME STEP 3 STRESS PERIOD 2
 14 TOTAL ITERATIONS


 OUTER ITERATION SUMMARY
 ---------------------------------------------------------------------------------------
                       OUTER     INNER         MAXIMUM                    MAXIMUM CHANGE
                   ITERATION ITERATION          CHANGE                    MODEL-(CELLID)
 ---------------------------------------------------------------------------------------
 Linear Solver             1        13     1.99746                        1_GWF-(1,15,5)
 Under-relaxation          1               1.99746                        1_GWF-(1,15,5)
 Linear Solver             2         1   -9.221854E-07                    1_GWF-(2,15,8)

 2 CALLS TO NUMERICAL SOLUTION IN TIME STEP 4 STRESS PERIOD 2
 14 TOTAL ITERATIONS


 OUTER ITERATION SUMMARY
 ---------------------------------------------------------------------------------------
                       OUTER     INNER         MAXIMUM                    MAXIMUM CHANGE
                   ITERATION ITERATION          CHANGE                    MODEL-(CELLID)
 ---------------------------------------------------------------------------------------
 Linear Solver             1        13     3.51303                        1_GWF-(1,15,5)
 Under-relaxation          1               3.51303                        1_GWF-(1,15,5)
 Linear Solver             2         1   -1.652183E-06                    1_GWF-(2,15,8)

 2 CALLS TO NUMERICAL SOLUTION IN TIME STEP 5 STRESS PERIOD 2
 14 TOTAL ITERATIONS


 OUTER ITERATION SUMMARY
 ---------------------------------------------------------------------------------------
                       OUTER     INNER         MAXIMUM                    MAXIMUM CHANGE
                   ITERATION ITERATION          CHANGE                    MODEL-(CELLID)
 ---------------------------------------------------------------------------------------
 Linear Solver             1        13    -5.75798                        1_GWF-(1,15,5)
 Under-relaxation          1              -5.75798                        1_GWF-(1,15,5)
 Linear Solver             2         1    2.683538E-06                    1_GWF-(2,15,8)

 2 CALLS TO NUMERICAL SOLUTION IN TIME STEP 6 STRESS PERIOD 2
 14 TOTAL ITERATIONS


 OUTER ITERATION SUMMARY
 ---------------------------------------------------------------------------------------
                       OUTER     INNER         MAXIMUM                    MAXIMUM CHANGE
                   ITERATION ITERATION          CHANGE                    MODEL-(CELLID)
 ---------------------------------------------------------------------------------------
 Linear Solver             1        13    -2.00718                        1_GWF-(1,15,5)
 Under-relaxation          1              -2.00718                        1_GWF-(1,15,5)
 Linear Solver             2         1    9.625561E-07                    1_GWF-(2,15,8)

 2 CALLS TO NUMERICAL SOLUTION IN TIME STEP 7 STRESS PERIOD 2
 14 TOTAL ITERATIONS


 OUTER ITERATION SUMMARY
 ---------------------------------------------------------------------------------------
                       OUTER     INNER         MAXIMUM                    MAXIMUM CHANGE
                   ITERATION ITERATION          CHANGE                    MODEL-(CELLID)
 ---------------------------------------------------------------------------------------
 Linear Solver             1        11   -0.223128                        1_GWF-(1,15,6)
 Under-relaxation          1             -0.223128                        1_GWF-(1,15,6)
 Linear Solver             2         1   -8.970172E-07                     1_GWF-(2,3,7)

 2 CALLS TO NUMERICAL SOLUTION IN TIME STEP 8 STRESS PERIOD 2
 12 TOTAL ITERATIONS


 OUTER ITERATION SUMMARY
 ---------------------------------------------------------------------------------------
                       OUTER     INNER         MAXIMUM                    MAXIMUM CHANGE
                   ITERATION ITERATION          CHANGE                    MODEL-(CELLID)
 ---------------------------------------------------------------------------------------
 Linear Solver             1         9   -2.674396E-02                    1_GWF-(1,15,5)
 Under-relaxation          1             -2.674396E-02                    1_GWF-(1,15,5)
 Linear Solver             2         1   -1.436477E-06                    1_GWF-(2,15,7)

 2 CALLS TO NUMERICAL SOLUTION IN TIME STEP 9 STRESS PERIOD 2
 10 TOTAL ITERATIONS


 OUTER ITERATION SUMMARY
 ---------------------------------------------------------------------------------------
                       OUTER     INNER         MAXIMUM                    MAXIMUM CHANGE
                   ITERATION ITERATION          CHANGE                    MODEL-(CELLID)
 ---------------------------------------------------------------------------------------
 Linear Solver             1         7    2.394083E-03                    1_GWF-(1,15,5)
 Under-relaxation          1              2.394083E-03                    1_GWF-(1,15,5)
 Linear Solver             2         1    1.261823E-06                     1_GWF-(2,2,8)

 2 CALLS TO NUMERICAL SOLUTION IN TIME STEP 10 STRESS PERIOD 2
 8 TOTAL ITERATIONS


 OUTER ITERATION SUMMARY
 ---------------------------------------------------------------------------------------
                       OUTER     INNER         MAXIMUM                    MAXIMUM CHANGE
                   ITERATION ITERATION          CHANGE                    MODEL-(CELLID)
 ---------------------------------------------------------------------------------------
 Linear Solver             1        10    8.962665E-02                    1_GWF-(1,15,6)
 Under-relaxation          1              8.962665E-02                    1_GWF-(1,15,6)
 Linear Solver             2         1   -1.137935E-06                     1_GWF-(2,2,6)

 2 CALLS TO NUMERICAL SOLUTION IN TIME STEP 11 STRESS PERIOD 2
 11 TOTAL ITERATIONS


 OUTER ITERATION SUMMARY
 ---------------------------------------------------------------------------------------
                       OUTER     INNER         MAXIMUM                    MAXIMUM CHANGE
                   ITERATION ITERATION          CHANGE                    MODEL-(CELLID)
 ---------------------------------------------------------------------------------------
 Linear Solver             1        13     1.74706                        1_GWF-(1,15,5)
 Under-relaxation          1               1.74706                        1_GWF-(1,15,5)
 Linear Solver             2         1   -8.183836E-07                    1_GWF-(2,15,8)

 2 CALLS TO NUMERICAL SOLUTION IN TIME STEP 12 STRESS PERIOD 2
 14 TOTAL ITERATIONS


 OUTER ITERATION SUMMARY
 ---------------------------------------------------------------------------------------
                       OUTER     INNER         MAXIMUM                    MAXIMUM CHANGE
                   ITERATION ITERATION          CHANGE                    MODEL-(CELLID)
 ---------------------------------------------------------------------------------------
 Linear Solver             1        14     12.0410                        1_GWF-(1,15,6)
 Under-relaxation          1               12.0410                        1_GWF-(1,15,6)
 Linear Solver             2         1   -1.493563E-06                    1_GWF-(2,15,7)

 2 CALLS TO NUMERICAL SOLUTION IN TIME STEP 13 STRESS PERIOD 2
 15 TOTAL ITERATIONS


 OUTER ITERATION SUMMARY
 ---------------------------------------------------------------------------------------
                       OUTER     INNER         MAXIMUM                    MAXIMUM CHANGE
                   ITERATION ITERATION          CHANGE                    MODEL-(CELLID)
 ---------------------------------------------------------------------------------------
 Linear Solver             1        13    -2.69825                        1_GWF-(1,15,5)
 Under-relaxation          1              -2.69825                        1_GWF-(1,15,5)
 Linear Solver             2         1    1.228729E-06                    1_GWF-(2,15,8)

 2 CALLS TO NUMERICAL SOLUTION IN TIME STEP 14 STRESS PERIOD 2
 14 TOTAL ITERATIONS


 OUTER ITERATION SUMMARY
 ---------------------------------------------------------------------------------------
                       OUTER     INNER         MAXIMUM                    MAXIMUM CHANGE
                   ITERATION ITERATION          CHANGE                    MODEL-(CELLID)
 ---------------------------------------------------------------------------------------
 Linear Solver             1        13     4.93310                        1_GWF-(1,15,5)
 Under-relaxation          1               4.93310                        1_GWF-(1,15,5)
 Linear Solver             2         1   -2.300923E-06                    1_GWF-(2,15,8)

 2 CALLS TO NUMERICAL SOLUTION IN TIME STEP 15 STRESS PERIOD 2
 14 TOTAL ITERATIONS


 OUTER ITERATION SUMMARY
 ---------------------------------------------------------------------------------------
                       OUTER     INNER         MAXIMUM                    MAXIMUM CHANGE
                   ITERATION ITERATION          CHANGE                    MODEL-(CELLID)
 ---------------------------------------------------------------------------------------
 Linear Solver             1        14    -8.41692                        1_GWF-(1,15,5)
 Under-relaxation          1              -8.41692                        1_GWF-(1,15,5)
 Linear Solver             2         1    1.033268E-06                    1_GWF-(2,15,7)

 2 CALLS TO NUMERICAL SOLUTION IN TIME STEP 16 STRESS PERIOD 2
 15 TOTAL ITERATIONS


 OUTER ITERATION SUMMARY
 ---------------------------------------------------------------------------------------
                       OUTER     INNER         MAXIMUM                    MAXIMUM CHANGE
                   ITERATION ITERATION          CHANGE                    MODEL-(CELLID)
 ---------------------------------------------------------------------------------------
 Linear Solver             1        13    -4.71602                        1_GWF-(1,15,5)
 Under-relaxation          1              -4.71602                        1_GWF-(1,15,5)
 Linear Solver             2         1    2.240544E-06                    1_GWF-(2,15,8)

 2 CALLS TO NUMERICAL SOLUTION IN TIME STEP 17 STRESS PERIOD 2
 14 TOTAL ITERATIONS


 OUTER ITERATION SUMMARY
 ---------------------------------------------------------------------------------------
                       OUTER     INNER         MAXIMUM                    MAXIMUM CHANGE
                   ITERATION ITERATION          CHANGE                    MODEL-(CELLID)
 ---------------------------------------------------------------------------------------
 Linear Solver             1        13    -1.60412                        1_GWF-(1,15,5)
 Under-relaxation          1              -1.60412                        1_GWF-(1,15,5)
 Linear Solver             2         1    7.704592E-07                    1_GWF-(2,15,8)

 2 CALLS TO NUMERICAL SOLUTION IN TIME STEP 18 STRESS PERIOD 2
 14 TOTAL ITERATIONS


 OUTER ITERATION SUMMARY
 ---------------------------------------------------------------------------------------
                       OUTER     INNER         MAXIMUM                    MAXIMUM CHANGE
                   ITERATION ITERATION          CHANGE                    MODEL-(CELLID)
 ---------------------------------------------------------------------------------------
 Linear Solver             1        12   -0.666476                        1_GWF-(1,15,5)
 Under-relaxation          1             -0.666476                        1_GWF-(1,15,5)
 Linear Solver             2         1   -1.011315E-06                    1_GWF-(2,15,7)

 2 CALLS TO NUMERICAL SOLUTION IN TIME STEP 19 STRESS PERIOD 2
 13 TOTAL ITERATIONS


 OUTER ITERATION SUMMARY
 ---------------------------------------------------------------------------------------
                       OUTER     INNER         MAXIMUM                    MAXIMUM CHANGE
                   ITERATION ITERATION          CHANGE                    MODEL-(CELLID)
 ---------------------------------------------------------------------------------------
 Linear Solver             1        11   -0.325471                        1_GWF-(1,15,6)
 Under-relaxation          1             -0.325471                        1_GWF-(1,15,6)
 Linear Solver             2         1   -1.135767E-06                     1_GWF-(2,3,7)

 2 CALLS TO NUMERICAL SOLUTION IN TIME STEP 20 STRESS PERIOD 2
 12 TOTAL ITERATIONS


 OUTER ITERATION SUMMARY
 ---------------------------------------------------------------------------------------
                       OUTER     INNER         MAXIMUM                    MAXIMUM CHANGE
                   ITERATION ITERATION          CHANGE                    MODEL-(CELLID)
 ---------------------------------------------------------------------------------------
 Linear Solver             1        11    0.231196                        1_GWF-(1,15,5)
 Under-relaxation          1              0.231196                        1_GWF-(1,15,5)
 Linear Solver             2         1    7.511779E-07                     1_GWF-(2,3,7)

 2 CALLS TO NUMERICAL SOLUTION IN TIME STEP 21 STRESS PERIOD 2
 12 TOTAL ITERATIONS


 OUTER ITERATION SUMMARY
 ---------------------------------------------------------------------------------------
                       OUTER     INNER         MAXIMUM                    MAXIMUM CHANGE
                   ITERATION ITERATION          CHANGE                    MODEL-(CELLID)
 ---------------------------------------------------------------------------------------
 Linear Solver             1        13     4.54338                        1_GWF-(1,15,5)
 Under-relaxation          1               4.54338                        1_GWF-(1,15,5)
 Linear Solver             2         1   -2.128252E-06                    1_GWF-(2,15,8)

 2 CALLS TO NUMERICAL SOLUTION IN TIME STEP 22 STRESS PERIOD 2
 14 TOTAL ITERATIONS


 OUTER ITERATION SUMMARY
 ---------------------------------------------------------------------------------------
                       OUTER     INNER         MAXIMUM                    MAXIMUM CHANGE
                   ITERATION ITERATION          CHANGE                    MODEL-(CELLID)
 ---------------------------------------------------------------------------------------
 Linear Solver             1        13     5.63200                        1_GWF-(1,15,5)
 Under-relaxation          1               5.63200                        1_GWF-(1,15,5)
 Linear Solver             2         1   -2.654250E-06                    1_GWF-(2,15,8)

 2 CALLS TO NUMERICAL SOLUTION IN TIME STEP 23 STRESS PERIOD 2
 14 TOTAL ITERATIONS


 OUTER ITERATION SUMMARY
 ---------------------------------------------------------------------------------------
                       OUTER     INNER         MAXIMUM                    MAXIMUM CHANGE
                   ITERATION ITERATION          CHANGE                    MODEL-(CELLID)
 ---------------------------------------------------------------------------------------
 Linear Solver             1        14     15.8386                        1_GWF-(1,15,6)
 Under-relaxation          1               15.8386                        1_GWF-(1,15,6)
 Linear Solver             2         1   -1.971481E-06                     1_GWF-(2,5,9)

 2 CALLS TO NUMERICAL SOLUTION IN TIME STEP 24 STRESS PERIOD 2
 15 TOTAL ITERATIONS


 OUTER ITERATION SUMMARY
 ---------------------------------------------------------------------------------------
                       OUTER     INNER         MAXIMUM                    MAXIMUM CHANGE
                   ITERATION ITERATION          CHANGE                    MODEL-(CELLID)
 ---------------------------------------------------------------------------------------
 Linear Solver             1        13    -5.57248                        1_GWF-(1,15,5)
 Under-relaxation          1              -5.57248                        1_GWF-(1,15,5)
 Linear Solver             2         1    2.558466E-06                    1_GWF-(2,15,8)

 2 CALLS TO NUMERICAL SOLUTION IN TIME STEP 25 STRESS PERIOD 2
 14 TOTAL ITERATIONS


 OUTER ITERATION SUMMARY
 ---------------------------------------------------------------------------------------
                       OUTER     INNER         MAXIMUM                    MAXIMUM CHANGE
                   ITERATION ITERATION          CHANGE                    MODEL-(CELLID)
 ---------------------------------------------------------------------------------------
 Linear Solver             1        14    -14.2236                        1_GWF-(1,15,6)
 Under-relaxation          1              -14.2236                        1_GWF-(1,15,6)
 Linear Solver             2         1    1.771482E-06                     1_GWF-(2,5,9)

 2 CALLS TO NUMERICAL SOLUTION IN TIME STEP 26 STRESS PERIOD 2
 15 TOTAL ITERATIONS


 OUTER ITERATION SUMMARY
 ---------------------------------------------------------------------------------------
                       OUTER     INNER         MAXIMUM                    MAXIMUM CHANGE
                   ITERATION ITERATION          CHANGE                    MODEL-(CELLID)
 ---------------------------------------------------------------------------------------
 Linear Solver             1        13    -1.15623                        1_GWF-(1,15,6)
 Under-relaxation          1              -1.15623                        1_GWF-(1,15,6)
 Linear Solver             2         1    6.023029E-07                    1_GWF-(2,15,8)

 2 CALLS TO NUMERICAL SOLUTION IN TIME STEP 27 STRESS PERIOD 2
 14 TOTAL ITERATIONS


 OUTER ITERATION SUMMARY
 ---------------------------------------------------------------------------------------
                       OUTER     INNER         MAXIMUM                    MAXIMUM CHANGE
                   ITERATION ITERATION          CHANGE                    MODEL-(CELLID)
 ---------------------------------------------------------------------------------------
 Linear Solver             1        11    0.187865                        1_GWF-(1,15,6)
 Under-relaxation          1              0.187865                        1_GWF-(1,15,6)
 Linear Solver             2         1   -5.549292E-07                    1_GWF-(1,15,6)

 2 CALLS TO NUMERICAL SOLUTION IN TIME STEP 28 STRESS PERIOD 2
 12 TOTAL ITERATIONS


 OUTER ITERATION SUMMARY
 ---------------------------------------------------------------------------------------
                       OUTER     INNER         MAXIMUM                    MAXIMUM CHANGE
                   ITERATION ITERATION          CHANGE                    MODEL-(CELLID)
 ---------------------------------------------------------------------------------------
 Linear Solver             1        13    -3.69285                        1_GWF-(1,15,5)
 Under-relaxation          1              -3.69285                        1_GWF-(1,15,5)
 Linear Solver             2         1    1.728559E-06                    1_GWF-(2,15,8)

 2 CALLS TO NUMERICAL SOLUTION IN TIME STEP 29 STRESS PERIOD 2
 14 TOTAL ITERATIONS


 OUTER ITERATION SUMMARY
 ---------------------------------------------------------------------------------------
                       OUTER     INNER         MAXIMUM                    MAXIMUM CHANGE
                   ITERATION ITERATION          CHANGE                    MODEL-(CELLID)
 ---------------------------------------------------------------------------------------
 Linear Solver             1        13    -1.71851                        1_GWF-(1,15,5)
 Under-relaxation          1              -1.71851                        1_GWF-(1,15,5)
 Linear Solver             2         1    8.191161E-07                    1_GWF-(2,15,8)

 2 CALLS TO NUMERICAL SOLUTION IN TIME STEP 30 STRESS PERIOD 2
 14 TOTAL ITERATIONS


 OUTER ITERATION SUMMARY
 ---------------------------------------------------------------------------------------
                       OUTER     INNER         MAXIMUM                    MAXIMUM CHANGE
                   ITERATION ITERATION          CHANGE                    MODEL-(CELLID)
 ---------------------------------------------------------------------------------------
 Linear Solver             1        11   -0.379192                        1_GWF-(1,15,6)
 Under-relaxation          1             -0.379192                        1_GWF-(1,15,6)
 Linear Solver             2         1   -1.393166E-06                     1_GWF-(2,3,7)

 2 CALLS TO NUMERICAL SOLUTION IN TIME STEP 31 STRESS PERIOD 2
 12 TOTAL ITERATIONS


 OUTER ITERATION SUMMARY
 ---------------------------------------------------------------------------------------
                       OUTER     INNER         MAXIMUM                    MAXIMUM CHANGE
                   ITERATION ITERATION          CHANGE                    MODEL-(CELLID)
 ---------------------------------------------------------------------------------------
 Linear Solver             1        10   -6.880505E-02                    1_GWF-(1,15,6)
 Under-relaxation          1             -6.880505E-02                    1_GWF-(1,15,6)
 Linear Solver             2         1    8.584058E-07                     1_GWF-(2,2,6)

 2 CALLS TO NUMERICAL SOLUTION IN TIME STEP 32 STRESS PERIOD 2
 11 TOTAL ITERATIONS


 OUTER ITERATION SUMMARY
 ---------------------------------------------------------------------------------------
                       OUTER     INNER         MAXIMUM                    MAXIMUM CHANGE
                   ITERATION ITERATION          CHANGE                    MODEL-(CELLID)
 ---------------------------------------------------------------------------------------
 Linear Solver             1        10    0.154109                        1_GWF-(1,15,5)
 Under-relaxation          1              0.154109                        1_GWF-(1,15,5)
 Linear Solver             2         1   -1.959427E-06                     1_GWF-(2,2,6)

 2 CALLS TO NUMERICAL SOLUTION IN TIME STEP 33 STRESS PERIOD 2
 11 TOTAL ITERATIONS


 OUTER ITERATION SUMMARY
 ---------------------------------------------------------------------------------------
                       OUTER     INNER         MAXIMUM                    MAXIMUM CHANGE
                   ITERATION ITERATION          CHANGE                    MODEL-(CELLID)
 ---------------------------------------------------------------------------------------
 Linear Solver             1        13     1.94403                        1_GWF-(1,15,5)
 Under-relaxation          1               1.94403                        1_GWF-(1,15,5)
 Linear Solver             2         1   -9.108471E-07                    1_GWF-(2,15,8)

 2 CALLS TO NUMERICAL SOLUTION IN TIME STEP 34 STRESS PERIOD 2
 14 TOTAL ITERATIONS


 OUTER ITERATION SUMMARY
 ---------------------------------------------------------------------------------------
                       OUTER     INNER         MAXIMUM                    MAXIMUM CHANGE
                   ITERATION ITERATION          CHANGE                    MODEL-(CELLID)
 ---------------------------------------------------------------------------------------
 Linear Solver             1        13     1.92612                        1_GWF-(1,15,5)
 Under-relaxation          1               1.92612                        1_GWF-(1,15,5)
 Linear Solver             2         1   -9.092601E-07                    1_GWF-(2,15,8)

 2 CALLS TO NUMERICAL SOLUTION IN TIME STEP 35 STRESS PERIOD 2
 14 TOTAL ITERATIONS


 OUTER ITERATION SUMMARY
 ---------------------------------------------------------------------------------------
                       OUTER     INNER         MAXIMUM                    MAXIMUM CHANGE
                   ITERATION ITERATION          CHANGE                    MODEL-(CELLID)
 ---------------------------------------------------------------------------------------
 Linear Solver             1        14     7.70386                        1_GWF-(1,15,6)
 Under-relaxation          1               7.70386                        1_GWF-(1,15,6)
 Linear Solver             2         1   -9.571403E-07                    1_GWF-(2,15,7)

 2 CALLS TO NUMERICAL SOLUTION IN TIME STEP 36 STRESS PERIOD 2
 15 TOTAL ITERATIONS


 OUTER ITERATION SUMMARY
 ---------------------------------------------------------------------------------------
                       OUTER     INNER         MAXIMUM                    MAXIMUM CHANGE
                   ITERATION ITERATION          CHANGE                    MODEL-(CELLID)
 ---------------------------------------------------------------------------------------
 Linear Solver             1        13    -1.04530                        1_GWF-(1,15,5)
 Under-relaxation          1              -1.04530                        1_GWF-(1,15,5)
 Linear Solver             2         1    4.722718E-07                    1_GWF-(2,15,8)

 2 CALLS TO NUMERICAL SOLUTION IN TIME STEP 37 STRESS PERIOD 2
 14 TOTAL ITERATIONS


 OUTER ITERATION SUMMARY
 ---------------------------------------------------------------------------------------
                       OUTER     INNER         MAXIMUM                    MAXIMUM CHANGE
                   ITERATION ITERATION          CHANGE                    MODEL-(CELLID)
 ---------------------------------------------------------------------------------------
 Linear Solver             1        13    -5.38742                        1_GWF-(1,15,5)
 Under-relaxation          1              -5.38742                        1_GWF-(1,15,5)
 Linear Solver             2         1    2.526052E-06                    1_GWF-(2,15,8)

 2 CALLS TO NUMERICAL SOLUTION IN TIME STEP 38 STRESS PERIOD 2
 14 TOTAL ITERATIONS


 OUTER ITERATION SUMMARY
 ---------------------------------------------------------------------------------------
                       OUTER     INNER         MAXIMUM                    MAXIMUM CHANGE
                   ITERATION ITERATION          CHANGE                    MODEL-(CELLID)
 ---------------------------------------------------------------------------------------
 Linear Solver             1        13     1.94114                        1_GWF-(1,15,5)
 Under-relaxation          1               1.94114                        1_GWF-(1,15,5)
 Linear Solver             2         1   -8.916168E-07                    1_GWF-(2,15,8)

 2 CALLS TO NUMERICAL SOLUTION IN TIME STEP 39 STRESS PERIOD 2
 14 TOTAL ITERATIONS


 OUTER ITERATION SUMMARY
 ---------------------------------------------------------------------------------------
                       OUTER     INNER         MAXIMUM                    MAXIMUM CHANGE
                   ITERATION ITERATION          CHANGE                    MODEL-(CELLID)
 ---------------------------------------------------------------------------------------
 Linear Solver             1        10   -8.371921E-02                    1_GWF-(1,15,5)
 Under-relaxation          1             -8.371921E-02                    1_GWF-(1,15,5)
 Linear Solver             2         1   -1.236016E-06                    1_GWF-(2,10,6)

 2 CALLS TO NUMERICAL SOLUTION IN TIME STEP 40 STRESS PERIOD 2
 11 TOTAL ITERATIONS


 OUTER ITERATION SUMMARY
 ---------------------------------------------------------------------------------------
                       OUTER     INNER         MAXIMUM                    MAXIMUM CHANGE
                   ITERATION ITERATION          CHANGE                    MODEL-(CELLID)
 ---------------------------------------------------------------------------------------
 Linear Solver             1        13    -2.79533                        1_GWF-(1,15,5)
 Under-relaxation          1              -2.79533                        1_GWF-(1,15,5)
 Linear Solver             2         1    1.309108E-06                    1_GWF-(2,15,8)

 2 CALLS TO NUMERICAL SOLUTION IN TIME STEP 41 STRESS PERIOD 2
 14 TOTAL ITERATIONS


 OUTER ITERATION SUMMARY
 ---------------------------------------------------------------------------------------
                       OUTER     INNER         MAXIMUM                    MAXIMUM CHANGE
                   ITERATION ITERATION          CHANGE                    MODEL-(CELLID)
 ---------------------------------------------------------------------------------------
 Linear Solver             1        13    -3.80009                        1_GWF-(1,15,5)
 Under-relaxation          1              -3.80009                        1_GWF-(1,15,5)
 Linear Solver             2         1    1.789861E-06                    1_GWF-(2,15,8)

 2 CALLS TO NUMERICAL SOLUTION IN TIME STEP 42 STRESS PERIOD 2
 14 TOTAL ITERATIONS


 OUTER ITERATION SUMMARY
 ---------------------------------------------------------------------------------------
                       OUTER     INNER         MAXIMUM                    MAXIMUM CHANGE
                   ITERATION ITERATION          CHANGE                    MODEL-(CELLID)
 ---------------------------------------------------------------------------------------
 Linear Solver             1        12   -0.485439                        1_GWF-(1,15,5)
 Under-relaxation          1             -0.485439                        1_GWF-(1,15,5)
 Linear Solver             2         1   -6.960099E-07                    1_GWF-(2,15,7)

 2 CALLS TO NUMERICAL SOLUTION IN TIME STEP 43 STRESS PERIOD 2
 13 TOTAL ITERATIONS


 OUTER ITERATION SUMMARY
 ---------------------------------------------------------------------------------------
                       OUTER     INNER         MAXIMUM                    MAXIMUM CHANGE
                   ITERATION ITERATION          CHANGE                    MODEL-(CELLID)
 ---------------------------------------------------------------------------------------
 Linear Solver             1        10   -6.868348E-02                    1_GWF-(1,15,6)
 Under-relaxation          1             -6.868348E-02                    1_GWF-(1,15,6)
 Linear Solver             2         1    8.504070E-07                     1_GWF-(2,2,6)

 2 CALLS TO NUMERICAL SOLUTION IN TIME STEP 44 STRESS PERIOD 2
 11 TOTAL ITERATIONS


 OUTER ITERATION SUMMARY
 ---------------------------------------------------------------------------------------
                       OUTER     INNER         MAXIMUM                    MAXIMUM CHANGE
                   ITERATION ITERATION          CHANGE                    MODEL-(CELLID)
 ---------------------------------------------------------------------------------------
 Linear Solver             1         8   -1.209267E-02                    1_GWF-(1,15,5)
 Under-relaxation          1             -1.209267E-02                    1_GWF-(1,15,5)
 Linear Solver             2         1    1.788256E-06                     1_GWF-(2,1,7)

 2 CALLS TO NUMERICAL SOLUTION IN TIME STEP 45 STRESS PERIOD 2
 9 TOTAL ITERATIONS


 OUTER ITERATION SUMMARY
 ---------------------------------------------------------------------------------------
                       OUTER     INNER         MAXIMUM                    MAXIMUM CHANGE
                   ITERATION ITERATION          CHANGE                    MODEL-(CELLID)
 ---------------------------------------------------------------------------------------
 Linear Solver             1         9    3.907336E-02                    1_GWF-(1,15,5)
 Under-relaxation          1              3.907336E-02                    1_GWF-(1,15,5)
 Linear Solver             2         1    2.224713E-06                    1_GWF-(2,15,7)

 2 CALLS TO NUMERICAL SOLUTION IN TIME STEP 46 STRESS PERIOD 2
 10 TOTAL ITERATIONS


 OUTER ITERATION SUMMARY
 ---------------------------------------------------------------------------------------
                       OUTER     INNER         MAXIMUM                    MAXIMUM CHANGE
                   ITERATION ITERATION          CHANGE                    MODEL-(CELLID)
 ---------------------------------------------------------------------------------------
 Linear Solver             1        13     1.23575                        1_GWF-(1,15,5)
 Under-relaxation          1               1.23575                        1_GWF-(1,15,5)
 Linear Solver             2         1   -5.787785E-07                    1_GWF-(2,15,8)

 2 CALLS TO NUMERICAL SOLUTION IN TIME STEP 47 STRESS PERIOD 2
 14 TOTAL ITERATIONS


 OUTER ITERATION SUMMARY
 ---------------------------------------------------------------------------------------
                       OUTER     INNER         MAXIMUM                    MAXIMUM CHANGE
                   ITERATION ITERATION          CHANGE                    MODEL-(CELLID)
 ---------------------------------------------------------------------------------------
 Linear Solver             1        13     6.08702                        1_GWF-(1,15,5)
 Under-relaxation          1               6.08702                        1_GWF-(1,15,5)
 Linear Solver             2         1   -2.854776E-06                    1_GWF-(2,15,8)

 2 CALLS TO NUMERICAL SOLUTION IN TIME STEP 48 STRESS PERIOD 2
 14 TOTAL ITERATIONS


 OUTER ITERATION SUMMARY
 ---------------------------------------------------------------------------------------
                       OUTER     INNER         MAXIMUM                    MAXIMUM CHANGE
                   ITERATION ITERATION          CHANGE                    MODEL-(CELLID)
 ---------------------------------------------------------------------------------------
 Linear Solver             1        13    -3.18623                        1_GWF-(1,15,5)
 Under-relaxation          1              -3.18623                        1_GWF-(1,15,5)
 Linear Solver             2         1    1.471444E-06                    1_GWF-(2,15,8)

 2 CALLS TO NUMERICAL SOLUTION IN TIME STEP 49 STRESS PERIOD 2
 14 TOTAL ITERATIONS


 OUTER ITERATION SUMMARY
 ---------------------------------------------------------------------------------------
                       OUTER     INNER         MAXIMUM                    MAXIMUM CHANGE
                   ITERATION ITERATION          CHANGE                    MODEL-(CELLID)
 ---------------------------------------------------------------------------------------
 Linear Solver             1        13    -1.50674                        1_GWF-(1,15,5)
 Under-relaxation          1              -1.50674                        1_GWF-(1,15,5)
 Linear Solver             2         1    7.175992E-07                    1_GWF-(2,15,8)

 2 CALLS TO NUMERICAL SOLUTION IN TIME STEP 50 STRESS PERIOD 2
 14 TOTAL ITERATIONS


 OUTER ITERATION SUMMARY
 ---------------------------------------------------------------------------------------
                       OUTER     INNER         MAXIMUM                    MAXIMUM CHANGE
                   ITERATION ITERATION          CHANGE                    MODEL-(CELLID)
 ---------------------------------------------------------------------------------------
 Linear Solver             1        13     4.54169                        1_GWF-(1,15,5)
 Under-relaxation          1               4.54169                        1_GWF-(1,15,5)
 Linear Solver             2         1   -2.121034E-06                    1_GWF-(2,15,8)

 2 CALLS TO NUMERICAL SOLUTION IN TIME STEP 51 STRESS PERIOD 2
 14 TOTAL ITERATIONS


 OUTER ITERATION SUMMARY
 ---------------------------------------------------------------------------------------
                       OUTER     INNER         MAXIMUM                    MAXIMUM CHANGE
                   ITERATION ITERATION          CHANGE                    MODEL-(CELLID)
 ---------------------------------------------------------------------------------------
 Linear Solver             1        13    -2.52942                        1_GWF-(1,15,5)
 Under-relaxation          1              -2.52942                        1_GWF-(1,15,5)
 Linear Solver             2         1    1.169129E-06                    1_GWF-(2,15,8)

 2 CALLS TO NUMERICAL SOLUTION IN TIME STEP 52 STRESS PERIOD 2
 14 TOTAL ITERATIONS


 OUTER ITERATION SUMMARY
 ---------------------------------------------------------------------------------------
                       OUTER     INNER         MAXIMUM                    MAXIMUM CHANGE
                   ITERATION ITERATION          CHANGE                    MODEL-(CELLID)
 ---------------------------------------------------------------------------------------
 Linear Solver             1        13    -2.13372                        1_GWF-(1,15,5)
 Under-relaxation          1              -2.13372                        1_GWF-(1,15,5)
 Linear Solver             2         1    1.008460E-06                    1_GWF-(2,15,8)

 2 CALLS TO NUMERICAL SOLUTION IN TIME STEP 53 STRESS PERIOD 2
 14 TOTAL ITERATIONS


 OUTER ITERATION SUMMARY
 ---------------------------------------------------------------------------------------
                       OUTER     INNER         MAXIMUM                    MAXIMUM CHANGE
                   ITERATION ITERATION          CHANGE                    MODEL-(CELLID)
 ---------------------------------------------------------------------------------------
 Linear Solver             1        13    -1.75586                        1_GWF-(1,15,5)
 Under-relaxation          1              -1.75586                        1_GWF-(1,15,5)
 Linear Solver             2         1    8.304462E-07                    1_GWF-(2,15,8)

 2 CALLS TO NUMERICAL SOLUTION IN TIME STEP 54 STRESS PERIOD 2
 14 TOTAL ITERATIONS


 OUTER ITERATION SUMMARY
 ---------------------------------------------------------------------------------------
                       OUTER     INNER         MAXIMUM                    MAXIMUM CHANGE
                   ITERATION ITERATION          CHANGE                    MODEL-(CELLID)
 ---------------------------------------------------------------------------------------
 Linear Solver             1        12   -0.651855                        1_GWF-(1,15,5)
 Under-relaxation          1             -0.651855                        1_GWF-(1,15,5)
 Linear Solver             2         1   -9.864832E-07                    1_GWF-(2,15,7)

 2 CALLS TO NUMERICAL SOLUTION IN TIME STEP 55 STRESS PERIOD 2
 13 TOTAL ITERATIONS


 OUTER ITERATION SUMMARY
 ---------------------------------------------------------------------------------------
                       OUTER     INNER         MAXIMUM                    MAXIMUM CHANGE
                   ITERATION ITERATION          CHANGE                    MODEL-(CELLID)
 ---------------------------------------------------------------------------------------
 Linear Solver             1        10   -9.690387E-02                    1_GWF-(1,15,6)
 Under-relaxation          1             -9.690387E-02                    1_GWF-(1,15,6)
 Linear Solver             2         1    1.204169E-06                     1_GWF-(2,2,6)

 2 CALLS TO NUMERICAL SOLUTION IN TIME STEP 56 STRESS PERIOD 2
 11 TOTAL ITERATIONS


 OUTER ITERATION SUMMARY
 ---------------------------------------------------------------------------------------
                       OUTER     INNER         MAXIMUM                    MAXIMUM CHANGE
                   ITERATION ITERATION          CHANGE                    MODEL-(CELLID)
 ---------------------------------------------------------------------------------------
 Linear Solver             1         9   -2.978467E-02                    1_GWF-(1,15,5)
 Under-relaxation          1             -2.978467E-02                    1_GWF-(1,15,5)
 Linear Solver             2         1   -1.660326E-06                    1_GWF-(2,15,7)

 2 CALLS TO NUMERICAL SOLUTION IN TIME STEP 57 STRESS PERIOD 2
 10 TOTAL ITERATIONS


 OUTER ITERATION SUMMARY
 ---------------------------------------------------------------------------------------
                       OUTER     INNER         MAXIMUM                    MAXIMUM CHANGE
                   ITERATION ITERATION          CHANGE                    MODEL-(CELLID)
 ---------------------------------------------------------------------------------------
 Linear Solver             1         7   -4.442484E-03                    1_GWF-(1,15,6)
 Under-relaxation          1             -4.442484E-03                    1_GWF-(1,15,6)
 Linear Solver             2         1   -2.094477E-06                     1_GWF-(2,1,8)

 2 CALLS TO NUMERICAL SOLUTION IN TIME STEP 58 STRESS PERIOD 2
 8 TOTAL ITERATIONS


 OUTER ITERATION SUMMARY
 ---------------------------------------------------------------------------------------
                       OUTER     INNER         MAXIMUM                    MAXIMUM CHANGE
                   ITERATION ITERATION          CHANGE                    MODEL-(CELLID)
 ---------------------------------------------------------------------------------------
 Linear Solver             1        11    0.186985                        1_GWF-(1,15,6)
 Under-relaxation          1              0.186985                        1_GWF-(1,15,6)
 Linear Solver             2         1    6.249711E-07                     1_GWF-(2,3,7)

 2 CALLS TO NUMERICAL SOLUTION IN TIME STEP 59 STRESS PERIOD 2
 12 TOTAL ITERATIONS


 OUTER ITERATION SUMMARY
 ---------------------------------------------------------------------------------------
                       OUTER     INNER         MAXIMUM                    MAXIMUM CHANGE
                   ITERATION ITERATION          CHANGE                    MODEL-(CELLID)
 ---------------------------------------------------------------------------------------
 Linear Solver             1        11    0.191660                        1_GWF-(1,15,6)
 Under-relaxation          1              0.191660                        1_GWF-(1,15,6)
 Linear Solver             2         1    6.537855E-07                     1_GWF-(2,3,7)

 2 CALLS TO NUMERICAL SOLUTION IN TIME STEP 60 STRESS PERIOD 2
 12 TOTAL ITERATIONS


 OUTER ITERATION SUMMARY
 ---------------------------------------------------------------------------------------
                       OUTER     INNER         MAXIMUM                    MAXIMUM CHANGE
                   ITERATION ITERATION          CHANGE                    MODEL-(CELLID)
 ---------------------------------------------------------------------------------------
 Linear Solver             1         9   -4.728346E-02                    1_GWF-(1,15,5)
 Under-relaxation          1             -4.728346E-02                    1_GWF-(1,15,5)
 Linear Solver             2         1   -2.743979E-06                    1_GWF-(2,15,7)

 2 CALLS TO NUMERICAL SOLUTION IN TIME STEP 61 STRESS PERIOD 2
 10 TOTAL ITERATIONS


 OUTER ITERATION SUMMARY
 ---------------------------------------------------------------------------------------
                       OUTER     INNER         MAXIMUM                    MAXIMUM CHANGE
                   ITERATION ITERATION          CHANGE                    MODEL-(CELLID)
 ---------------------------------------------------------------------------------------
 Linear Solver             1        11   -0.163533                        1_GWF-(1,15,6)
 Under-relaxation          1             -0.163533                        1_GWF-(1,15,6)
 Linear Solver             2         1   -5.499956E-07                     1_GWF-(2,3,7)

 2 CALLS TO NUMERICAL SOLUTION IN TIME STEP 62 STRESS PERIOD 2
 12 TOTAL ITERATIONS


 OUTER ITERATION SUMMARY
 ---------------------------------------------------------------------------------------
                       OUTER     INNER         MAXIMUM                    MAXIMUM CHANGE
                   ITERATION ITERATION          CHANGE                    MODEL-(CELLID)
 ---------------------------------------------------------------------------------------
 Linear Solver             1         9   -1.483535E-02                    1_GWF-(1,15,5)
 Under-relaxation          1             -1.483535E-02                    1_GWF-(1,15,5)
 Linear Solver             2         1   -7.842665E-07                    1_GWF-(2,15,7)

 2 CALLS TO NUMERICAL SOLUTION IN TIME STEP 63 STRESS PERIOD 2
 10 TOTAL ITERATIONS


 OUTER ITERATION SUMMARY
 ---------------------------------------------------------------------------------------
                       OUTER     INNER         MAXIMUM                    MAXIMUM CHANGE
                   ITERATION ITERATION          CHANGE                    MODEL-(CELLID)
 ---------------------------------------------------------------------------------------
 Linear Solver             1         9    3.827056E-02                    1_GWF-(1,15,5)
 Under-relaxation          1              3.827056E-02                    1_GWF-(1,15,5)
 Linear Solver             2         1    2.180146E-06                    1_GWF-(2,15,7)

 2 CALLS TO NUMERICAL SOLUTION IN TIME STEP 64 STRESS PERIOD 2
 10 TOTAL ITERATIONS


 OUTER ITERATION SUMMARY
 ---------------------------------------------------------------------------------------
                       OUTER     INNER         MAXIMUM                    MAXIMUM CHANGE
                   ITERATION ITERATION          CHANGE                    MODEL-(CELLID)
 ---------------------------------------------------------------------------------------
 Linear Solver             1        10   -0.106018                        1_GWF-(1,15,5)
 Under-relaxation          1             -0.106018                        1_GWF-(1,15,5)
 Linear Solver             2         1    1.347444E-06                     1_GWF-(2,2,6)

 2 CALLS TO NUMERICAL SOLUTION IN TIME STEP 65 STRESS PERIOD 2
 11 TOTAL ITERATIONS


 OUTER ITERATION SUMMARY
 ---------------------------------------------------------------------------------------
                       OUTER     INNER         MAXIMUM                    MAXIMUM CHANGE
                   ITERATION ITERATION          CHANGE                    MODEL-(CELLID)
 ---------------------------------------------------------------------------------------
 Linear Solver             1         9   -5.739197E-02                    1_GWF-(1,15,5)
 Under-relaxation          1             -5.739197E-02                    1_GWF-(1,15,5)
 Linear Solver             2         1   -3.229571E-06                    1_GWF-(2,15,7)

 2 CALLS TO NUMERICAL SOLUTION IN TIME STEP 66 STRESS PERIOD 2
 10 TOTAL ITERATIONS


 OUTER ITERATION SUMMARY
 ---------------------------------------------------------------------------------------
                       OUTER     INNER         MAXIMUM                    MAXIMUM CHANGE
                   ITERATION ITERATION          CHANGE                    MODEL-(CELLID)
 ---------------------------------------------------------------------------------------
 Linear Solver             1         9   -2.910332E-02                    1_GWF-(1,15,5)
 Under-relaxation          1             -2.910332E-02                    1_GWF-(1,15,5)
 Linear Solver             2         1   -1.636088E-06                    1_GWF-(2,15,7)

 2 CALLS TO NUMERICAL SOLUTION IN TIME STEP 67 STRESS PERIOD 2
 10 TOTAL ITERATIONS


 OUTER ITERATION SUMMARY
 ---------------------------------------------------------------------------------------
                       OUTER     INNER         MAXIMUM                    MAXIMUM CHANGE
                   ITERATION ITERATION          CHANGE                    MODEL-(CELLID)
 ---------------------------------------------------------------------------------------
 Linear Solver             1         7   -5.277625E-03                    1_GWF-(1,15,6)
 Under-relaxation          1             -5.277625E-03                    1_GWF-(1,15,6)
 Linear Solver             2         1   -2.487811E-06                     1_GWF-(2,1,8)

 2 CALLS TO NUMERICAL SOLUTION IN TIME STEP 68 STRESS PERIOD 2
 8 TOTAL ITERATIONS


 OUTER ITERATION SUMMARY
 ---------------------------------------------------------------------------------------
                       OUTER     INNER         MAXIMUM                    MAXIMUM CHANGE
                   ITERATION ITERATION          CHANGE                    MODEL-(CELLID)
 ---------------------------------------------------------------------------------------
 Linear Solver             1         7   -3.890943E-03                    1_GWF-(1,15,6)
 Under-relaxation          1             -3.890943E-03                    1_GWF-(1,15,6)
 Linear Solver             2         1   -1.826629E-06                     1_GWF-(2,1,8)

 2 CALLS TO NUMERICAL SOLUTION IN TIME STEP 69 STRESS PERIOD 2
 8 TOTAL ITERATIONS


 OUTER ITERATION SUMMARY
 ---------------------------------------------------------------------------------------
                       OUTER     INNER         MAXIMUM                    MAXIMUM CHANGE
                   ITERATION ITERATION          CHANGE                    MODEL-(CELLID)
 ---------------------------------------------------------------------------------------
 Linear Solver             1         9    3.300445E-02                    1_GWF-(1,15,5)
 Under-relaxation          1              3.300445E-02                    1_GWF-(1,15,5)
 Linear Solver             2         1    1.876916E-06                    1_GWF-(2,15,7)

 2 CALLS TO NUMERICAL SOLUTION IN TIME STEP 70 STRESS PERIOD 2
 10 TOTAL ITERATIONS


 OUTER ITERATION SUMMARY
 ---------------------------------------------------------------------------------------
                       OUTER     INNER         MAXIMUM                    MAXIMUM CHANGE
                   ITERATION ITERATION          CHANGE                    MODEL-(CELLID)
 ---------------------------------------------------------------------------------------
 Linear Solver             1        13     1.13606                        1_GWF-(1,15,5)
 Under-relaxation          1               1.13606                        1_GWF-(1,15,5)
 Linear Solver             2         1   -5.320751E-07                    1_GWF-(2,15,8)

 2 CALLS TO NUMERICAL SOLUTION IN TIME STEP 71 STRESS PERIOD 2
 14 TOTAL ITERATIONS


 OUTER ITERATION SUMMARY
 ---------------------------------------------------------------------------------------
                       OUTER     INNER         MAXIMUM                    MAXIMUM CHANGE
                   ITERATION ITERATION          CHANGE                    MODEL-(CELLID)
 ---------------------------------------------------------------------------------------
 Linear Solver             1        13     3.90404                        1_GWF-(1,15,5)
 Under-relaxation          1               3.90404                        1_GWF-(1,15,5)
 Linear Solver             2         1   -1.832251E-06                    1_GWF-(2,15,8)

 2 CALLS TO NUMERICAL SOLUTION IN TIME STEP 72 STRESS PERIOD 2
 14 TOTAL ITERATIONS


 OUTER ITERATION SUMMARY
 ---------------------------------------------------------------------------------------
                       OUTER     INNER         MAXIMUM                    MAXIMUM CHANGE
                   ITERATION ITERATION          CHANGE                    MODEL-(CELLID)
 ---------------------------------------------------------------------------------------
 Linear Solver             1        11    0.447280                        1_GWF-(1,15,6)
 Under-relaxation          1              0.447280                        1_GWF-(1,15,6)
 Linear Solver             2         1    1.783026E-06                     1_GWF-(2,3,7)

 2 CALLS TO NUMERICAL SOLUTION IN TIME STEP 73 STRESS PERIOD 2
 12 TOTAL ITERATIONS


 OUTER ITERATION SUMMARY
 ---------------------------------------------------------------------------------------
                       OUTER     INNER         MAXIMUM                    MAXIMUM CHANGE
                   ITERATION ITERATION          CHANGE                    MODEL-(CELLID)
 ---------------------------------------------------------------------------------------
 Linear Solver             1        13     5.50866                        1_GWF-(1,15,5)
 Under-relaxation          1               5.50866                        1_GWF-(1,15,5)
 Linear Solver             2         1   -2.581273E-06                    1_GWF-(2,15,8)

 2 CALLS TO NUMERICAL SOLUTION IN TIME STEP 74 STRESS PERIOD 2
 14 TOTAL ITERATIONS


 OUTER ITERATION SUMMARY
 ---------------------------------------------------------------------------------------
                       OUTER     INNER         MAXIMUM                    MAXIMUM CHANGE
                   ITERATION ITERATION          CHANGE                    MODEL-(CELLID)
 ---------------------------------------------------------------------------------------
 Linear Solver             1        13    -1.98482                        1_GWF-(1,15,5)
 Under-relaxation          1              -1.98482                        1_GWF-(1,15,5)
 Linear Solver             2         1    9.116983E-07                    1_GWF-(2,15,8)

 2 CALLS TO NUMERICAL SOLUTION IN TIME STEP 75 STRESS PERIOD 2
 14 TOTAL ITERATIONS


 OUTER ITERATION SUMMARY
 ---------------------------------------------------------------------------------------
                       OUTER     INNER         MAXIMUM                    MAXIMUM CHANGE
                   ITERATION ITERATION          CHANGE                    MODEL-(CELLID)
 ---------------------------------------------------------------------------------------
 Linear Solver             1        13    -4.22392                        1_GWF-(1,15,5)
 Under-relaxation          1              -4.22392                        1_GWF-(1,15,5)
 Linear Solver             2         1    1.984894E-06                    1_GWF-(2,15,8)

 2 CALLS TO NUMERICAL SOLUTION IN TIME STEP 76 STRESS PERIOD 2
 14 TOTAL ITERATIONS


 OUTER ITERATION SUMMARY
 ---------------------------------------------------------------------------------------
                       OUTER     INNER         MAXIMUM                    MAXIMUM CHANGE
                   ITERATION ITERATION          CHANGE                    MODEL-(CELLID)
 ---------------------------------------------------------------------------------------
 Linear Solver             1        13    -1.62104                        1_GWF-(1,15,5)
 Under-relaxation          1              -1.62104                        1_GWF-(1,15,5)
 Linear Solver             2         1    7.758798E-07                    1_GWF-(2,15,8)

 2 CALLS TO NUMERICAL SOLUTION IN TIME STEP 77 STRESS PERIOD 2
 14 TOTAL ITERATIONS


 OUTER ITERATION SUMMARY
 ---------------------------------------------------------------------------------------
                       OUTER     INNER         MAXIMUM                    MAXIMUM CHANGE
                   ITERATION ITERATION          CHANGE                    MODEL-(CELLID)
 ---------------------------------------------------------------------------------------
 Linear Solver             1        13    -2.04156                        1_GWF-(1,15,5)
 Under-relaxation          1              -2.04156                        1_GWF-(1,15,5)
 Linear Solver             2         1    9.622925E-07                    1_GWF-(2,15,8)

 2 CALLS TO NUMERICAL SOLUTION IN TIME STEP 78 STRESS PERIOD 2
 14 TOTAL ITERATIONS


 OUTER ITERATION SUMMARY
 ---------------------------------------------------------------------------------------
                       OUTER     INNER         MAXIMUM                    MAXIMUM CHANGE
                   ITERATION ITERATION          CHANGE                    MODEL-(CELLID)
 ---------------------------------------------------------------------------------------
 Linear Solver             1        12   -0.536396                        1_GWF-(1,15,5)
 Under-relaxation          1             -0.536396                        1_GWF-(1,15,5)
 Linear Solver             2         1   -8.023543E-07                    1_GWF-(2,15,7)

 2 CALLS TO NUMERICAL SOLUTION IN TIME STEP 79 STRESS PERIOD 2
 13 TOTAL ITERATIONS


 OUTER ITERATION SUMMARY
 ---------------------------------------------------------------------------------------
                       OUTER     INNER         MAXIMUM                    MAXIMUM CHANGE
                   ITERATION ITERATION          CHANGE                    MODEL-(CELLID)
 ---------------------------------------------------------------------------------------
 Linear Solver             1        11   -0.349985                        1_GWF-(1,15,6)
 Under-relaxation          1             -0.349985                        1_GWF-(1,15,6)
 Linear Solver             2         1   -1.208646E-06                     1_GWF-(2,3,7)

 2 CALLS TO NUMERICAL SOLUTION IN TIME STEP 80 STRESS PERIOD 2
 12 TOTAL ITERATIONS


 OUTER ITERATION SUMMARY
 ---------------------------------------------------------------------------------------
                       OUTER     INNER         MAXIMUM                    MAXIMUM CHANGE
                   ITERATION ITERATION          CHANGE                    MODEL-(CELLID)
 ---------------------------------------------------------------------------------------
 Linear Solver             1        10   -0.130103                        1_GWF-(1,15,6)
 Under-relaxation          1             -0.130103                        1_GWF-(1,15,6)
 Linear Solver             2         1    1.639194E-06                     1_GWF-(2,2,6)

 2 CALLS TO NUMERICAL SOLUTION IN TIME STEP 81 STRESS PERIOD 2
 11 TOTAL ITERATIONS


 OUTER ITERATION SUMMARY
 ---------------------------------------------------------------------------------------
                       OUTER     INNER         MAXIMUM                    MAXIMUM CHANGE
                   ITERATION ITERATION          CHANGE                    MODEL-(CELLID)
 ---------------------------------------------------------------------------------------
 Linear Solver             1        10    0.118236                        1_GWF-(1,15,5)
 Under-relaxation          1              0.118236                        1_GWF-(1,15,5)
 Linear Solver             2         1   -1.506087E-06                     1_GWF-(2,2,6)

 2 CALLS TO NUMERICAL SOLUTION IN TIME STEP 82 STRESS PERIOD 2
 11 TOTAL ITERATIONS


 OUTER ITERATION SUMMARY
 ---------------------------------------------------------------------------------------
                       OUTER     INNER         MAXIMUM                    MAXIMUM CHANGE
                   ITERATION ITERATION          CHANGE                    MODEL-(CELLID)
 ---------------------------------------------------------------------------------------
 Linear Solver             1        14     11.8928                        1_GWF-(1,15,6)
 Under-relaxation          1               11.8928                        1_GWF-(1,15,6)
 Linear Solver             2         1   -1.472212E-06                    1_GWF-(2,15,7)

 2 CALLS TO NUMERICAL SOLUTION IN TIME STEP 83 STRESS PERIOD 2
 15 TOTAL ITERATIONS


 OUTER ITERATION SUMMARY
 ---------------------------------------------------------------------------------------
                       OUTER     INNER         MAXIMUM                    MAXIMUM CHANGE
                   ITERATION ITERATION          CHANGE                    MODEL-(CELLID)
 ---------------------------------------------------------------------------------------
 Linear Solver             1        14     7.69250                        1_GWF-(1,15,6)
 Under-relaxation          1               7.69250                        1_GWF-(1,15,6)
 Linear Solver             2         1   -9.845656E-07                     1_GWF-(2,5,9)

 2 CALLS TO NUMERICAL SOLUTION IN TIME STEP 84 STRESS PERIOD 2
 15 TOTAL ITERATIONS


 OUTER ITERATION SUMMARY
 ---------------------------------------------------------------------------------------
                       OUTER     INNER         MAXIMUM                    MAXIMUM CHANGE
                   ITERATION ITERATION          CHANGE                    MODEL-(CELLID)
 ---------------------------------------------------------------------------------------
 Linear Solver             1        14    -13.9864                        1_GWF-(1,15,5)
 Under-relaxation          1              -13.9864                        1_GWF-(1,15,5)
 Linear Solver             2         1    1.717426E-06                    1_GWF-(2,15,7)

 2 CALLS TO NUMERICAL SOLUTION IN TIME STEP 85 STRESS PERIOD 2
 15 TOTAL ITERATIONS


 OUTER ITERATION SUMMARY
 ---------------------------------------------------------------------------------------
                       OUTER     INNER         MAXIMUM                    MAXIMUM CHANGE
                   ITERATION ITERATION          CHANGE                    MODEL-(CELLID)
 ---------------------------------------------------------------------------------------
 Linear Solver             1        13    -2.69287                        1_GWF-(1,15,5)
 Under-relaxation          1              -2.69287                        1_GWF-(1,15,5)
 Linear Solver             2         1    1.318582E-06                    1_GWF-(2,15,8)

 2 CALLS TO NUMERICAL SOLUTION IN TIME STEP 86 STRESS PERIOD 2
 14 TOTAL ITERATIONS


 OUTER ITERATION SUMMARY
 ---------------------------------------------------------------------------------------
                       OUTER     INNER         MAXIMUM                    MAXIMUM CHANGE
                   ITERATION ITERATION          CHANGE                    MODEL-(CELLID)
 ---------------------------------------------------------------------------------------
 Linear Solver             1        12   -0.555874                        1_GWF-(1,15,5)
 Under-relaxation          1             -0.555874                        1_GWF-(1,15,5)
 Linear Solver             2         1   -8.210177E-07                    1_GWF-(2,15,7)

 2 CALLS TO NUMERICAL SOLUTION IN TIME STEP 87 STRESS PERIOD 2
 13 TOTAL ITERATIONS


 OUTER ITERATION SUMMARY
 ---------------------------------------------------------------------------------------
                       OUTER     INNER         MAXIMUM                    MAXIMUM CHANGE
                   ITERATION ITERATION          CHANGE                    MODEL-(CELLID)
 ---------------------------------------------------------------------------------------
 Linear Solver             1        13    -1.12186                        1_GWF-(1,15,5)
 Under-relaxation          1              -1.12186                        1_GWF-(1,15,5)
 Linear Solver             2         1    5.275411E-07                    1_GWF-(2,15,8)

 2 CALLS TO NUMERICAL SOLUTION IN TIME STEP 88 STRESS PERIOD 2
 14 TOTAL ITERATIONS


 OUTER ITERATION SUMMARY
 ---------------------------------------------------------------------------------------
                       OUTER     INNER         MAXIMUM                    MAXIMUM CHANGE
                   ITERATION ITERATION          CHANGE                    MODEL-(CELLID)
 ---------------------------------------------------------------------------------------
 Linear Solver             1        12   -0.810617                        1_GWF-(1,15,5)
 Under-relaxation          1             -0.810617                        1_GWF-(1,15,5)
 Linear Solver             2         1   -1.244059E-06                    1_GWF-(2,15,7)

 2 CALLS TO NUMERICAL SOLUTION IN TIME STEP 89 STRESS PERIOD 2
 13 TOTAL ITERATIONS


 OUTER ITERATION SUMMARY
 ---------------------------------------------------------------------------------------
                       OUTER     INNER         MAXIMUM                    MAXIMUM CHANGE
                   ITERATION ITERATION          CHANGE                    MODEL-(CELLID)
 ---------------------------------------------------------------------------------------
 Linear Solver             1        11   -0.329664                        1_GWF-(1,15,6)
 Under-relaxation          1             -0.329664                        1_GWF-(1,15,6)
 Linear Solver             2         1   -1.159843E-06                     1_GWF-(2,3,7)

 2 CALLS TO NUMERICAL SOLUTION IN TIME STEP 90 STRESS PERIOD 2
 12 TOTAL ITERATIONS


 OUTER ITERATION SUMMARY
 ---------------------------------------------------------------------------------------
                       OUTER     INNER         MAXIMUM                    MAXIMUM CHANGE
                   ITERATION ITERATION          CHANGE                    MODEL-(CELLID)
 ---------------------------------------------------------------------------------------
 Linear Solver             1        11   -0.200395                        1_GWF-(1,15,6)
 Under-relaxation          1             -0.200395                        1_GWF-(1,15,6)
 Linear Solver             2         1   -6.934358E-07                     1_GWF-(2,3,7)

 2 CALLS TO NUMERICAL SOLUTION IN TIME STEP 91 STRESS PERIOD 2
 12 TOTAL ITERATIONS


 OUTER ITERATION SUMMARY
 ---------------------------------------------------------------------------------------
                       OUTER     INNER         MAXIMUM                    MAXIMUM CHANGE
                   ITERATION ITERATION          CHANGE                    MODEL-(CELLID)
 ---------------------------------------------------------------------------------------
 Linear Solver             1         9   -5.654989E-02                    1_GWF-(1,15,5)
 Under-relaxation          1             -5.654989E-02                    1_GWF-(1,15,5)
 Linear Solver             2         1   -3.150098E-06                    1_GWF-(2,15,7)

 2 CALLS TO NUMERICAL SOLUTION IN TIME STEP 92 STRESS PERIOD 2
 10 TOTAL ITERATIONS


 OUTER ITERATION SUMMARY
 ---------------------------------------------------------------------------------------
                       OUTER     INNER         MAXIMUM                    MAXIMUM CHANGE
                   ITERATION ITERATION          CHANGE                    MODEL-(CELLID)
 ---------------------------------------------------------------------------------------
 Linear Solver             1        11    0.366430                        1_GWF-(1,15,6)
 Under-relaxation          1              0.366430                        1_GWF-(1,15,6)
 Linear Solver             2         1    1.221459E-06                     1_GWF-(2,3,7)

 2 CALLS TO NUMERICAL SOLUTION IN TIME STEP 93 STRESS PERIOD 2
 12 TOTAL ITERATIONS


 OUTER ITERATION SUMMARY
 ---------------------------------------------------------------------------------------
                       OUTER     INNER         MAXIMUM                    MAXIMUM CHANGE
                   ITERATION ITERATION          CHANGE                    MODEL-(CELLID)
 ---------------------------------------------------------------------------------------
 Linear Solver             1        12    0.591463                        1_GWF-(1,15,5)
 Under-relaxation          1              0.591463                        1_GWF-(1,15,5)
 Linear Solver             2         1    9.151576E-07                    1_GWF-(2,15,7)

 2 CALLS TO NUMERICAL SOLUTION IN TIME STEP 94 STRESS PERIOD 2
 13 TOTAL ITERATIONS


 OUTER ITERATION SUMMARY
 ---------------------------------------------------------------------------------------
                       OUTER     INNER         MAXIMUM                    MAXIMUM CHANGE
                   ITERATION ITERATION          CHANGE                    MODEL-(CELLID)
 ---------------------------------------------------------------------------------------
 Linear Solver             1        11   -0.256296                        1_GWF-(1,15,6)
 Under-relaxation          1             -0.256296                        1_GWF-(1,15,6)
 Linear Solver             2         1   -8.180749E-07                     1_GWF-(2,3,7)

 2 CALLS TO NUMERICAL SOLUTION IN TIME STEP 95 STRESS PERIOD 2
 12 TOTAL ITERATIONS


 OUTER ITERATION SUMMARY
 ---------------------------------------------------------------------------------------
                       OUTER     INNER         MAXIMUM                    MAXIMUM CHANGE
                   ITERATION ITERATION          CHANGE                    MODEL-(CELLID)
 ---------------------------------------------------------------------------------------
 Linear Solver             1        13     2.31413                        1_GWF-(1,15,5)
 Under-relaxation          1               2.31413                        1_GWF-(1,15,5)
 Linear Solver             2         1   -1.082686E-06                    1_GWF-(2,15,8)

 2 CALLS TO NUMERICAL SOLUTION IN TIME STEP 96 STRESS PERIOD 2
 14 TOTAL ITERATIONS


 OUTER ITERATION SUMMARY
 ---------------------------------------------------------------------------------------
                       OUTER     INNER         MAXIMUM                    MAXIMUM CHANGE
                   ITERATION ITERATION          CHANGE                    MODEL-(CELLID)
 ---------------------------------------------------------------------------------------
 Linear Solver             1        13     6.46104                        1_GWF-(1,15,5)
 Under-relaxation          1               6.46104                        1_GWF-(1,15,5)
 Linear Solver             2         1   -3.033910E-06                    1_GWF-(2,15,8)

 2 CALLS TO NUMERICAL SOLUTION IN TIME STEP 97 STRESS PERIOD 2
 14 TOTAL ITERATIONS


 OUTER ITERATION SUMMARY
 ---------------------------------------------------------------------------------------
                       OUTER     INNER         MAXIMUM                    MAXIMUM CHANGE
                   ITERATION ITERATION          CHANGE                    MODEL-(CELLID)
 ---------------------------------------------------------------------------------------
 Linear Solver             1        13    -5.08255                        1_GWF-(1,15,5)
 Under-relaxation          1              -5.08255                        1_GWF-(1,15,5)
 Linear Solver             2         1    2.357403E-06                    1_GWF-(2,15,8)

 2 CALLS TO NUMERICAL SOLUTION IN TIME STEP 98 STRESS PERIOD 2
 14 TOTAL ITERATIONS


 OUTER ITERATION SUMMARY
 ---------------------------------------------------------------------------------------
                       OUTER     INNER         MAXIMUM                    MAXIMUM CHANGE
                   ITERATION ITERATION          CHANGE                    MODEL-(CELLID)
 ---------------------------------------------------------------------------------------
 Linear Solver             1        13     1.03307                        1_GWF-(1,15,5)
 Under-relaxation          1               1.03307                        1_GWF-(1,15,5)
 Linear Solver             2         1   -4.697968E-07                    1_GWF-(2,15,8)

 2 CALLS TO NUMERICAL SOLUTION IN TIME STEP 99 STRESS PERIOD 2
 14 TOTAL ITERATIONS


 OUTER ITERATION SUMMARY
 ---------------------------------------------------------------------------------------
                       OUTER     INNER         MAXIMUM                    MAXIMUM CHANGE
                   ITERATION ITERATION          CHANGE                    MODEL-(CELLID)
 ---------------------------------------------------------------------------------------
 Linear Solver             1        13     1.85512                        1_GWF-(1,15,5)
 Under-relaxation          1               1.85512                        1_GWF-(1,15,5)
 Linear Solver             2         1   -8.722174E-07                    1_GWF-(2,15,8)

 2 CALLS TO NUMERICAL SOLUTION IN TIME STEP 100 STRESS PERIOD 2
 14 TOTAL ITERATIONS


 OUTER ITERATION SUMMARY
 ---------------------------------------------------------------------------------------
                       OUTER     INNER         MAXIMUM                    MAXIMUM CHANGE
                   ITERATION ITERATION          CHANGE                    MODEL-(CELLID)
 ---------------------------------------------------------------------------------------
 Linear Solver             1        13    -1.44601                        1_GWF-(1,15,5)
 Under-relaxation          1              -1.44601                        1_GWF-(1,15,5)
 Linear Solver             2         1    6.706203E-07                    1_GWF-(2,15,8)

 2 CALLS TO NUMERICAL SOLUTION IN TIME STEP 101 STRESS PERIOD 2
 14 TOTAL ITERATIONS


 OUTER ITERATION SUMMARY
 ---------------------------------------------------------------------------------------
                       OUTER     INNER         MAXIMUM                    MAXIMUM CHANGE
                   ITERATION ITERATION          CHANGE                    MODEL-(CELLID)
 ---------------------------------------------------------------------------------------
 Linear Solver             1        13    -3.14587                        1_GWF-(1,15,5)
 Under-relaxation          1              -3.14587                        1_GWF-(1,15,5)
 Linear Solver             2         1    1.478305E-06                    1_GWF-(2,15,8)

 2 CALLS TO NUMERICAL SOLUTION IN TIME STEP 102 STRESS PERIOD 2
 14 TOTAL ITERATIONS


 OUTER ITERATION SUMMARY
 ---------------------------------------------------------------------------------------
                       OUTER     INNER         MAXIMUM                    MAXIMUM CHANGE
                   ITERATION ITERATION          CHANGE                    MODEL-(CELLID)
 ---------------------------------------------------------------------------------------
 Linear Solver             1        13    -2.26165                        1_GWF-(1,15,5)
 Under-relaxation          1              -2.26165                        1_GWF-(1,15,5)
 Linear Solver             2         1    1.071138E-06                    1_GWF-(2,15,8)

 2 CALLS TO NUMERICAL SOLUTION IN TIME STEP 103 STRESS PERIOD 2
 14 TOTAL ITERATIONS


 OUTER ITERATION SUMMARY
 ---------------------------------------------------------------------------------------
                       OUTER     INNER         MAXIMUM                    MAXIMUM CHANGE
                   ITERATION ITERATION          CHANGE                    MODEL-(CELLID)
 ---------------------------------------------------------------------------------------
 Linear Solver             1        11   -0.416024                        1_GWF-(1,15,6)
 Under-relaxation          1             -0.416024                        1_GWF-(1,15,6)
 Linear Solver             2         1   -1.556186E-06                     1_GWF-(2,3,7)

 2 CALLS TO NUMERICAL SOLUTION IN TIME STEP 104 STRESS PERIOD 2
 12 TOTAL ITERATIONS


 OUTER ITERATION SUMMARY
 ---------------------------------------------------------------------------------------
                       OUTER     INNER         MAXIMUM                    MAXIMUM CHANGE
                   ITERATION ITERATION          CHANGE                    MODEL-(CELLID)
 ---------------------------------------------------------------------------------------
 Linear Solver             1        10   -8.272591E-02                    1_GWF-(1,15,6)
 Under-relaxation          1             -8.272591E-02                    1_GWF-(1,15,6)
 Linear Solver             2         1    1.033625E-06                     1_GWF-(2,2,6)

 2 CALLS TO NUMERICAL SOLUTION IN TIME STEP 105 STRESS PERIOD 2
 11 TOTAL ITERATIONS


 OUTER ITERATION SUMMARY
 ---------------------------------------------------------------------------------------
                       OUTER     INNER         MAXIMUM                    MAXIMUM CHANGE
                   ITERATION ITERATION          CHANGE                    MODEL-(CELLID)
 ---------------------------------------------------------------------------------------
 Linear Solver             1        12    0.590696                        1_GWF-(1,15,5)
 Under-relaxation          1              0.590696                        1_GWF-(1,15,5)
 Linear Solver             2         1    9.214264E-07                    1_GWF-(2,15,7)

 2 CALLS TO NUMERICAL SOLUTION IN TIME STEP 106 STRESS PERIOD 2
 13 TOTAL ITERATIONS


 OUTER ITERATION SUMMARY
 ---------------------------------------------------------------------------------------
                       OUTER     INNER         MAXIMUM                    MAXIMUM CHANGE
                   ITERATION ITERATION          CHANGE                    MODEL-(CELLID)
 ---------------------------------------------------------------------------------------
 Linear Solver             1        10   -9.543948E-02                    1_GWF-(1,15,5)
 Under-relaxation          1             -9.543948E-02                    1_GWF-(1,15,5)
 Linear Solver             2         1    1.234519E-06                     1_GWF-(2,2,6)

 2 CALLS TO NUMERICAL SOLUTION IN TIME STEP 107 STRESS PERIOD 2
 11 TOTAL ITERATIONS


 OUTER ITERATION SUMMARY
 ---------------------------------------------------------------------------------------
                       OUTER     INNER         MAXIMUM                    MAXIMUM CHANGE
                   ITERATION ITERATION          CHANGE                    MODEL-(CELLID)
 ---------------------------------------------------------------------------------------
 Linear Solver             1        11    0.201551                        1_GWF-(1,15,6)
 Under-relaxation          1              0.201551                        1_GWF-(1,15,6)
 Linear Solver             2         1    6.678610E-07                     1_GWF-(2,3,7)

 2 CALLS TO NUMERICAL SOLUTION IN TIME STEP 108 STRESS PERIOD 2
 12 TOTAL ITERATIONS


 OUTER ITERATION SUMMARY
 ---------------------------------------------------------------------------------------
                       OUTER     INNER         MAXIMUM                    MAXIMUM CHANGE
                   ITERATION ITERATION          CHANGE                    MODEL-(CELLID)
 ---------------------------------------------------------------------------------------
 Linear Solver             1        12    0.621949                        1_GWF-(1,15,5)
 Under-relaxation          1              0.621949                        1_GWF-(1,15,5)
 Linear Solver             2         1    9.653519E-07                    1_GWF-(2,15,7)

 2 CALLS TO NUMERICAL SOLUTION IN TIME STEP 109 STRESS PERIOD 2
 13 TOTAL ITERATIONS


 OUTER ITERATION SUMMARY
 ---------------------------------------------------------------------------------------
                       OUTER     INNER         MAXIMUM                    MAXIMUM CHANGE
                   ITERATION ITERATION          CHANGE                    MODEL-(CELLID)
 ---------------------------------------------------------------------------------------
 Linear Solver             1        13     2.77319                        1_GWF-(1,15,5)
 Under-relaxation          1               2.77319                        1_GWF-(1,15,5)
 Linear Solver             2         1   -1.300839E-06                    1_GWF-(2,15,8)

 2 CALLS TO NUMERICAL SOLUTION IN TIME STEP 110 STRESS PERIOD 2
 14 TOTAL ITERATIONS


 OUTER ITERATION SUMMARY
 ---------------------------------------------------------------------------------------
                       OUTER     INNER         MAXIMUM                    MAXIMUM CHANGE
                   ITERATION ITERATION          CHANGE                    MODEL-(CELLID)
 ---------------------------------------------------------------------------------------
 Linear Solver             1        13    -2.59532                        1_GWF-(1,15,5)
 Under-relaxation          1              -2.59532                        1_GWF-(1,15,5)
 Linear Solver             2         1    1.205529E-06                    1_GWF-(2,15,8)

 2 CALLS TO NUMERICAL SOLUTION IN TIME STEP 111 STRESS PERIOD 2
 14 TOTAL ITERATIONS


 OUTER ITERATION SUMMARY
 ---------------------------------------------------------------------------------------
                       OUTER     INNER         MAXIMUM                    MAXIMUM CHANGE
                   ITERATION ITERATION          CHANGE                    MODEL-(CELLID)
 ---------------------------------------------------------------------------------------
 Linear Solver             1        12   -0.687154                        1_GWF-(1,15,5)
 Under-relaxation          1             -0.687154                        1_GWF-(1,15,5)
 Linear Solver             2         1   -1.028794E-06                    1_GWF-(2,15,7)

 2 CALLS TO NUMERICAL SOLUTION IN TIME STEP 112 STRESS PERIOD 2
 13 TOTAL ITERATIONS


 OUTER ITERATION SUMMARY
 ---------------------------------------------------------------------------------------
                       OUTER     INNER         MAXIMUM                    MAXIMUM CHANGE
                   ITERATION ITERATION          CHANGE                    MODEL-(CELLID)
 ---------------------------------------------------------------------------------------
 Linear Solver             1        11   -0.466495                        1_GWF-(1,15,6)
 Under-relaxation          1             -0.466495                        1_GWF-(1,15,6)
 Linear Solver             2         1   -1.608955E-06                     1_GWF-(2,3,7)

 2 CALLS TO NUMERICAL SOLUTION IN TIME STEP 113 STRESS PERIOD 2
 12 TOTAL ITERATIONS


 OUTER ITERATION SUMMARY
 ---------------------------------------------------------------------------------------
                       OUTER     INNER         MAXIMUM                    MAXIMUM CHANGE
                   ITERATION ITERATION          CHANGE                    MODEL-(CELLID)
 ---------------------------------------------------------------------------------------
 Linear Solver             1        11   -0.310143                        1_GWF-(1,15,6)
 Under-relaxation          1             -0.310143                        1_GWF-(1,15,6)
 Linear Solver             2         1   -1.069813E-06                     1_GWF-(2,3,7)

 2 CALLS TO NUMERICAL SOLUTION IN TIME STEP 114 STRESS PERIOD 2
 12 TOTAL ITERATIONS


 OUTER ITERATION SUMMARY
 ---------------------------------------------------------------------------------------
                       OUTER     INNER         MAXIMUM                    MAXIMUM CHANGE
                   ITERATION ITERATION          CHANGE                    MODEL-(CELLID)
 ---------------------------------------------------------------------------------------
 Linear Solver             1         9   -3.833549E-02                    1_GWF-(1,15,5)
 Under-relaxation          1             -3.833549E-02                    1_GWF-(1,15,5)
 Linear Solver             2         1   -2.072395E-06                    1_GWF-(2,15,7)

 2 CALLS TO NUMERICAL SOLUTION IN TIME STEP 115 STRESS PERIOD 2
 10 TOTAL ITERATIONS


 OUTER ITERATION SUMMARY
 ---------------------------------------------------------------------------------------
                       OUTER     INNER         MAXIMUM                    MAXIMUM CHANGE
                   ITERATION ITERATION          CHANGE                    MODEL-(CELLID)
 ---------------------------------------------------------------------------------------
 Linear Solver             1         9   -1.455959E-02                    1_GWF-(1,15,5)
 Under-relaxation          1             -1.455959E-02                    1_GWF-(1,15,5)
 Linear Solver             2         1   -8.145501E-07                    1_GWF-(2,15,7)

 2 CALLS TO NUMERICAL SOLUTION IN TIME STEP 116 STRESS PERIOD 2
 10 TOTAL ITERATIONS


 OUTER ITERATION SUMMARY
 ---------------------------------------------------------------------------------------
                       OUTER     INNER         MAXIMUM                    MAXIMUM CHANGE
                   ITERATION ITERATION          CHANGE                    MODEL-(CELLID)
 ---------------------------------------------------------------------------------------
 Linear Solver             1         7   -2.724142E-03                    1_GWF-(1,15,6)
 Under-relaxation          1             -2.724142E-03                    1_GWF-(1,15,6)
 Linear Solver             2         1   -1.283896E-06                     1_GWF-(2,1,8)

 2 CALLS TO NUMERICAL SOLUTION IN TIME STEP 117 STRESS PERIOD 2
 8 TOTAL ITERATIONS


 OUTER ITERATION SUMMARY
 ---------------------------------------------------------------------------------------
                       OUTER     INNER         MAXIMUM                    MAXIMUM CHANGE
                   ITERATION ITERATION          CHANGE                    MODEL-(CELLID)
 ---------------------------------------------------------------------------------------
 Linear Solver             1         6    1.918791E-03                    1_GWF-(1,15,5)
 Under-relaxation          1              1.918791E-03                    1_GWF-(1,15,5)
 Linear Solver             2         1   -2.318373E-06                    1_GWF-(2,15,9)

 2 CALLS TO NUMERICAL SOLUTION IN TIME STEP 118 STRESS PERIOD 2
 7 TOTAL ITERATIONS


 OUTER ITERATION SUMMARY
 ---------------------------------------------------------------------------------------
                       OUTER     INNER         MAXIMUM                    MAXIMUM CHANGE
                   ITERATION ITERATION          CHANGE                    MODEL-(CELLID)
 ---------------------------------------------------------------------------------------
 Linear Solver             1         8    8.449489E-03                    1_GWF-(1,15,5)
 Under-relaxation          1              8.449489E-03                    1_GWF-(1,15,5)
 Linear Solver             2         1   -1.295962E-06                     1_GWF-(2,1,7)

 2 CALLS TO NUMERICAL SOLUTION IN TIME STEP 119 STRESS PERIOD 2
 9 TOTAL ITERATIONS


 OUTER ITERATION SUMMARY
 ---------------------------------------------------------------------------------------
                       OUTER     INNER         MAXIMUM                    MAXIMUM CHANGE
                   ITERATION ITERATION          CHANGE                    MODEL-(CELLID)
 ---------------------------------------------------------------------------------------
 Linear Solver             1        12    0.777886                        1_GWF-(1,15,5)
 Under-relaxation          1              0.777886                        1_GWF-(1,15,5)
 Linear Solver             2         1    1.211396E-06                    1_GWF-(2,15,7)

 2 CALLS TO NUMERICAL SOLUTION IN TIME STEP 120 STRESS PERIOD 2
 13 TOTAL ITERATIONS


 Solution SLN_1 summary
 ----------------------------------------------------------------------
 Total formulate time:  .000000000000000 seconds
 Total solution time:   .1562500000000000E-01 seconds


 INFORMATION ON VARIABLES STORED IN THE MEMORY MANAGER
 
 Number of allocated integer variables:   23832
 Number of allocated real variables:    25144
 Allocated memory in megabytes:    0.296480    
 

 Run end date and time (yyyy/mm/dd hh:mm:ss): 2020/09/21 18:55:21
 Elapsed run time:  0.436 Seconds

 Normal termination of simulation.
